REMARK SMILES CCC(=O)n1cc2c3c(cccc31)C1=C[C@@H](C(=O)N(CC)CC)CN(C)[C@@H]1C2
REMARK SMILES IDX 25 1 5 2 27 3 14 4 28 5 16 6 24 7 7 8 9 9 8 10 15 11 13 12
REMARK SMILES IDX 6 13 26 14 10 15 12 16 11 17 17 18 18 19 19 20 20 21 21 22
REMARK SMILES IDX 22 23 23 24 3 25 4 26 2 27 1 28
REMARK H PARENT
ROOT
ATOM      1  N   UNL     1      -0.839   2.528  -1.209  1.00  0.00    -0.298 NA
ATOM      2  N   UNL     1       4.010   0.687   1.868  1.00  0.00    -0.287 N 
ATOM      3  C   UNL     1       0.057   1.775  -0.302  1.00  0.00     0.091 C 
ATOM      4  C   UNL     1       0.036   0.236  -0.468  1.00  0.00    -0.026 C 
ATOM      5  C   UNL     1       1.518   2.346  -0.382  1.00  0.00     0.061 C 
ATOM      6  C   UNL     1      -1.396   0.381  -2.502  1.00  0.00     0.116 C 
ATOM      7  C   UNL     1      -0.988   1.875  -2.524  1.00  0.00     0.102 C 
ATOM      8  C   UNL     1       2.412   1.540   0.508  1.00  0.00    -0.019 A 
ATOM      9  C   UNL     1       0.923  -0.511   0.452  1.00  0.00    -0.011 A 
ATOM     10  C   UNL     1       2.060   0.219   0.853  1.00  0.00     0.011 A 
ATOM     11  C   UNL     1      -0.644  -0.385  -1.449  1.00  0.00    -0.007 C 
ATOM     12  C   UNL     1       3.035  -0.314   1.697  1.00  0.00     0.056 A 
ATOM     13  C   UNL     1       3.599   1.807   1.133  1.00  0.00     0.099 A 
ATOM     14  C   UNL     1      -2.138   2.792  -0.593  1.00  0.00     0.106 C 
ATOM     15  C   UNL     1       0.769  -1.813   0.921  1.00  0.00     0.009 A 
ATOM     16  C   UNL     1       2.868  -1.632   2.169  1.00  0.00     0.027 A 
ATOM     17  C   UNL     1       1.731  -2.359   1.771  1.00  0.00     0.003 A 
ENDROOT
BRANCH   6  18
ATOM     18  C   UNL     1      -2.933   0.198  -2.609  1.00  0.00     0.230 C 
ATOM     19  O   UNL     1      -3.607   0.943  -3.327  1.00  0.00    -0.274 OA
ATOM     20  N   UNL     1      -3.490  -0.964  -2.050  1.00  0.00    -0.343 N 
BRANCH  20  21
ATOM     21  C   UNL     1      -3.586  -1.026  -0.585  1.00  0.00     0.116 C 
ATOM     22  C   UNL     1      -4.820  -0.333  -0.017  1.00  0.00     0.027 C 
ENDBRANCH  20  21
BRANCH  20  23
ATOM     23  C   UNL     1      -4.614  -1.525  -2.807  1.00  0.00     0.116 C 
ATOM     24  C   UNL     1      -4.889  -2.990  -2.506  1.00  0.00     0.027 C 
ENDBRANCH  20  23
ENDBRANCH   6  18
BRANCH   2  25
ATOM     25  C   UNL     1       5.216   0.691   2.612  1.00  0.00     0.230 C 
ATOM     26  O   UNL     1       5.905   1.708   2.611  1.00  0.00    -0.274 OA
BRANCH  25  27
ATOM     27  C   UNL     1       5.570  -0.566   3.356  1.00  0.00     0.097 C 
ATOM     28  C   UNL     1       6.894  -0.431   4.095  1.00  0.00     0.014 C 
ENDBRANCH  25  27
ENDBRANCH   2  25
TORSDOF 5
