REMARK SMILES C=CCN1C[C@H](C(=O)N(CC)CC)C=C2c3cccc4[nH]cc(c34)C[C@H]21
REMARK SMILES IDX 4 1 21 2 26 3 15 4 25 5 6 6 5 7 23 8 16 9 14 10 24 11 20 12
REMARK SMILES IDX 22 13 17 14 19 15 18 16 7 18 8 19 9 20 10 21 11 22 12 23
REMARK SMILES IDX 13 24 3 25 2 26 1 27
REMARK H PARENT 21 17
ROOT
ATOM      1  N   UNL     1      -2.122   0.187   0.447  1.00  0.00    -0.291 NA
ATOM      2  N   UNL     1       0.357  -1.580   5.661  1.00  0.00    -0.361 N 
ATOM      3  C   UNL     1      -1.319  -0.538   1.467  1.00  0.00     0.092 C 
ATOM      4  C   UNL     1       0.207  -0.593   1.148  1.00  0.00    -0.026 C 
ATOM      5  C   UNL     1      -1.715  -0.179   2.948  1.00  0.00     0.061 C 
ATOM      6  C   UNL     1      -0.221   0.082  -1.235  1.00  0.00     0.116 C 
ATOM      7  C   UNL     1      -1.705  -0.175  -0.915  1.00  0.00     0.103 C 
ATOM      8  C   UNL     1      -0.767  -0.786   3.920  1.00  0.00    -0.020 A 
ATOM      9  C   UNL     1       1.111  -1.082   2.221  1.00  0.00    -0.011 A 
ATOM     10  C   UNL     1       0.682  -0.283  -0.077  1.00  0.00    -0.007 C 
ATOM     11  C   UNL     1       0.529  -1.154   3.496  1.00  0.00     0.010 A 
ATOM     12  C   UNL     1       1.225  -1.638   4.592  1.00  0.00     0.046 A 
ATOM     13  C   UNL     1      -0.856  -1.060   5.265  1.00  0.00     0.087 A 
ATOM     14  C   UNL     1       2.437  -1.522   2.105  1.00  0.00     0.009 A 
ATOM     15  C   UNL     1       2.548  -2.071   4.489  1.00  0.00     0.027 A 
ATOM     16  C   UNL     1       3.139  -2.002   3.220  1.00  0.00     0.003 A 
ATOM     17  H   UNL     1       0.585  -1.871   6.601  1.00  0.00     0.166 HD
ENDROOT
BRANCH   6  18
ATOM     18  C   UNL     1       0.151  -0.726  -2.495  1.00  0.00     0.230 C 
ATOM     19  O   UNL     1       0.624  -1.863  -2.400  1.00  0.00    -0.274 OA
ATOM     20  N   UNL     1      -0.099  -0.155  -3.748  1.00  0.00    -0.343 N 
BRANCH  20  21
ATOM     21  C   UNL     1       0.245  -0.953  -4.929  1.00  0.00     0.116 C 
ATOM     22  C   UNL     1       1.730  -0.936  -5.261  1.00  0.00     0.027 C 
ENDBRANCH  20  21
BRANCH  20  23
ATOM     23  C   UNL     1      -0.517   1.233  -3.970  1.00  0.00     0.116 C 
ATOM     24  C   UNL     1       0.648   2.210  -4.012  1.00  0.00     0.027 C 
ENDBRANCH  20  23
ENDBRANCH   6  18
BRANCH   1  25
ATOM     25  C   UNL     1      -2.396   1.606   0.658  1.00  0.00     0.112 C 
BRANCH  25  26
ATOM     26  C   UNL     1      -1.233   2.537   0.851  1.00  0.00    -0.019 C 
ATOM     27  C   UNL     1      -1.083   3.360   1.899  1.00  0.00     0.005 C 
ENDBRANCH  25  26
ENDBRANCH   1  25
TORSDOF 5
