REMARK SMILES CCN(CC)C(=O)[C@@H]1C=C2c3cccc4c3c(cn4C(C)=O)C[C@H]2N(C)C1
REMARK SMILES IDX 25 1 19 2 24 3 10 4 23 5 8 6 27 7 17 8 11 9 16 10 9 11 15 12
REMARK SMILES IDX 18 13 26 14 12 15 14 16 13 17 6 18 7 19 3 20 2 21 1 22 4 23
REMARK SMILES IDX 5 24 20 25 22 26 21 27
REMARK H PARENT
ROOT
ATOM      1  N   UNL     1       0.899   2.166   2.160  1.00  0.00    -0.298 NA
ATOM      2  N   UNL     1      -1.518  -3.412   1.896  1.00  0.00    -0.287 N 
ATOM      3  C   UNL     1       0.630   0.713   2.025  1.00  0.00     0.091 C 
ATOM      4  C   UNL     1       1.239   0.111   0.729  1.00  0.00    -0.026 C 
ATOM      5  C   UNL     1      -0.867   0.262   2.213  1.00  0.00     0.061 C 
ATOM      6  C   UNL     1       1.620   2.376  -0.210  1.00  0.00     0.116 C 
ATOM      7  C   UNL     1       0.698   2.905   0.907  1.00  0.00     0.102 C 
ATOM      8  C   UNL     1      -0.984  -1.212   1.978  1.00  0.00    -0.019 A 
ATOM      9  C   UNL     1       1.131  -1.356   0.590  1.00  0.00    -0.011 A 
ATOM     10  C   UNL     1      -0.008  -1.892   1.222  1.00  0.00     0.011 A 
ATOM     11  C   UNL     1       1.721   0.874  -0.269  1.00  0.00    -0.007 C 
ATOM     12  C   UNL     1      -0.323  -3.250   1.171  1.00  0.00     0.056 A 
ATOM     13  C   UNL     1      -1.898  -2.151   2.374  1.00  0.00     0.099 A 
ATOM     14  C   UNL     1       0.212   2.796   3.279  1.00  0.00     0.106 C 
ATOM     15  C   UNL     1       1.973  -2.219  -0.106  1.00  0.00     0.009 A 
ATOM     16  C   UNL     1       0.536  -4.116   0.467  1.00  0.00     0.027 A 
ATOM     17  C   UNL     1       1.676  -3.580  -0.159  1.00  0.00     0.003 A 
ENDROOT
BRANCH   6  18
ATOM     18  C   UNL     1       1.259   3.022  -1.561  1.00  0.00     0.230 C 
ATOM     19  O   UNL     1       2.019   3.893  -2.006  1.00  0.00    -0.274 OA
ATOM     20  N   UNL     1       0.099   2.678  -2.256  1.00  0.00    -0.343 N 
BRANCH  20  21
ATOM     21  C   UNL     1      -0.147   3.372  -3.525  1.00  0.00     0.116 C 
ATOM     22  C   UNL     1       0.711   2.853  -4.670  1.00  0.00     0.027 C 
ENDBRANCH  20  21
BRANCH  20  23
ATOM     23  C   UNL     1      -0.873   1.646  -1.874  1.00  0.00     0.116 C 
ATOM     24  C   UNL     1      -0.779   0.384  -2.717  1.00  0.00     0.027 C 
ENDBRANCH  20  23
ENDBRANCH   6  18
BRANCH   2  25
ATOM     25  C   UNL     1      -2.284  -4.570   2.164  1.00  0.00     0.227 C 
ATOM     26  O   UNL     1      -3.314  -4.466   2.824  1.00  0.00    -0.274 OA
ATOM     27  C   UNL     1      -1.792  -5.868   1.618  1.00  0.00     0.115 C 
ENDBRANCH   2  25
TORSDOF 4
