REMARK SMILES CN1C[C@H](C(N)=O)C=C2c3cccc4[nH]cc(c34)C[C@H]21
REMARK SMILES IDX 2 1 15 2 20 3 9 4 19 5 3 6 4 7 17 8 10 9 18 10 8 11 14 12
REMARK SMILES IDX 1 13 16 14 11 15 13 16 12 17 5 19 7 20 6 21
REMARK H PARENT 15 18 6 22 6 23
ROOT
ATOM      1  N   UNL     1      -0.609  -1.341   1.802  1.00  0.00    -0.298 NA
ATOM      2  N   UNL     1       2.582   3.528   0.291  1.00  0.00    -0.361 N 
ATOM      3  C   UNL     1      -0.226  -0.046   1.157  1.00  0.00     0.091 C 
ATOM      4  C   UNL     1      -0.090  -0.153  -0.397  1.00  0.00    -0.026 C 
ATOM      5  C   UNL     1       1.071   0.532   1.844  1.00  0.00     0.061 C 
ATOM      6  C   UNL     1      -1.638  -2.033   0.998  1.00  0.00     0.102 C 
ATOM      7  C   UNL     1      -1.084  -2.436  -0.379  1.00  0.00     0.115 C 
ATOM      8  C   UNL     1       1.603   1.698   1.083  1.00  0.00    -0.020 A 
ATOM      9  C   UNL     1       0.487   1.018  -1.097  1.00  0.00    -0.011 A 
ATOM     10  C   UNL     1       1.281   1.837  -0.284  1.00  0.00     0.010 A 
ATOM     11  C   UNL     1      -0.454  -1.257  -1.077  1.00  0.00    -0.007 C 
ATOM     12  C   UNL     1       1.893   2.980  -0.770  1.00  0.00     0.046 A 
ATOM     13  C   UNL     1      -1.116  -1.136   3.162  1.00  0.00     0.106 C 
ATOM     14  C   UNL     1       2.413   2.757   1.422  1.00  0.00     0.087 A 
ATOM     15  C   UNL     1       0.329   1.403  -2.434  1.00  0.00     0.009 A 
ATOM     16  C   UNL     1       1.750   3.374  -2.102  1.00  0.00     0.027 A 
ATOM     17  C   UNL     1       0.952   2.560  -2.922  1.00  0.00     0.003 A 
ATOM     18  H   UNL     1       3.133   4.373   0.241  1.00  0.00     0.166 HD
ENDROOT
BRANCH   7  19
ATOM     19  C   UNL     1      -2.207  -3.019  -1.241  1.00  0.00     0.225 C 
ATOM     20  O   UNL     1      -3.405  -2.905  -1.006  1.00  0.00    -0.275 OA
ATOM     21  N   UNL     1      -1.788  -3.705  -2.350  1.00  0.00    -0.369 N 
ATOM     22  H   UNL     1      -2.498  -4.147  -2.920  1.00  0.00     0.159 HD
ATOM     23  H   UNL     1      -0.818  -3.934  -2.514  1.00  0.00     0.159 HD
ENDBRANCH   7  19
TORSDOF 1
