REMARK SMILES C[C@@H](CO)NC(=O)[C@@H]1C=C2c3cccc4[nH]cc(c34)C[C@H]2N(C)C1
REMARK SMILES IDX 2 1 1 2 5 3 7 4 6 5 8 7 24 8 9 9 22 10 10 11 21 12 11 13
REMARK SMILES IDX 20 14 19 15 12 16 18 17 15 18 13 19 17 20 16 21 14 22 23 23
REMARK SMILES IDX 3 25 4 26
REMARK H PARENT 5 6 16 24 4 27
ROOT
ATOM      1  C   UNL     1      -0.879  -0.804   3.650  1.00  0.00     0.104 C 
ATOM      2  C   UNL     1      -0.168  -0.296   4.904  1.00  0.00     0.033 C 
ENDROOT
BRANCH   1   3
ATOM      3  N   UNL     1      -0.036  -1.786   2.970  1.00  0.00    -0.351 N 
ATOM      4  O   UNL     1       0.502  -3.196   1.333  1.00  0.00    -0.274 OA
ATOM      5  C   UNL     1      -0.061  -2.148   1.648  1.00  0.00     0.228 C 
ATOM      6  H   UNL     1       0.424  -2.486   3.542  1.00  0.00     0.163 HD
BRANCH   5   7
ATOM      7  C   UNL     1      -0.752  -1.224   0.636  1.00  0.00     0.115 C 
ATOM      8  C   UNL     1      -1.039  -2.000  -0.671  1.00  0.00     0.102 C 
ATOM      9  C   UNL     1       0.121  -0.023   0.355  1.00  0.00    -0.007 C 
ATOM     10  N   UNL     1      -1.515  -1.161  -1.789  1.00  0.00    -0.298 NA
ATOM     11  C   UNL     1       0.245   0.475  -0.889  1.00  0.00    -0.026 C 
ATOM     12  C   UNL     1      -0.529  -0.096  -2.110  1.00  0.00     0.091 C 
ATOM     13  C   UNL     1       1.225   1.537  -1.208  1.00  0.00    -0.011 A 
ATOM     14  C   UNL     1       0.437  -0.574  -3.257  1.00  0.00     0.061 C 
ATOM     15  C   UNL     1       1.748   1.435  -2.508  1.00  0.00     0.010 A 
ATOM     16  C   UNL     1       1.696   2.572  -0.398  1.00  0.00     0.009 A 
ATOM     17  C   UNL     1       1.451   0.494  -3.525  1.00  0.00    -0.020 A 
ATOM     18  C   UNL     1       2.697   2.323  -2.983  1.00  0.00     0.046 A 
ATOM     19  C   UNL     1       2.655   3.471  -0.888  1.00  0.00     0.003 A 
ATOM     20  C   UNL     1       2.230   0.817  -4.612  1.00  0.00     0.087 A 
ATOM     21  N   UNL     1       2.980   1.924  -4.272  1.00  0.00    -0.361 N 
ATOM     22  C   UNL     1       3.178   3.367  -2.189  1.00  0.00     0.027 A 
ATOM     23  C   UNL     1      -2.837  -0.596  -1.519  1.00  0.00     0.106 C 
ATOM     24  H   UNL     1       3.646   2.380  -4.880  1.00  0.00     0.166 HD
ENDBRANCH   5   7
ENDBRANCH   1   3
BRANCH   1  25
ATOM     25  C   UNL     1      -2.255  -1.402   3.995  1.00  0.00     0.180 C 
BRANCH  25  26
ATOM     26  O   UNL     1      -3.122  -0.398   4.506  1.00  0.00    -0.394 OA
ATOM     27  H   UNL     1      -3.968  -0.831   4.719  1.00  0.00     0.210 HD
ENDBRANCH  25  26
ENDBRANCH   1  25
TORSDOF 4
