REMARK SMILES CCN(CC)C(=O)[C@@H]1C=C2c3cccc4[nH]cc(c34)C[C@H]2N(CC)C1
REMARK SMILES IDX 22 1 16 2 21 3 10 4 20 5 25 6 8 7 18 8 11 9 9 10 19 11 15 12
REMARK SMILES IDX 17 13 12 14 14 15 13 16 6 18 7 19 3 20 2 21 1 22 4 23 5 24
REMARK SMILES IDX 23 25 24 26
REMARK H PARENT 16 17
ROOT
ATOM      1  N   UNL     1      -1.790  -0.604   0.223  1.00  0.00    -0.295 NA
ATOM      2  N   UNL     1       1.390  -5.748   0.119  1.00  0.00    -0.361 N 
ATOM      3  C   UNL     1      -0.880  -1.759   0.489  1.00  0.00     0.091 C 
ATOM      4  C   UNL     1       0.555  -1.309   0.893  1.00  0.00    -0.026 C 
ATOM      5  C   UNL     1      -0.841  -2.883  -0.621  1.00  0.00     0.061 C 
ATOM      6  C   UNL     1      -1.103   0.432  -0.565  1.00  0.00     0.102 C 
ATOM      7  C   UNL     1       0.062   1.043   0.243  1.00  0.00     0.116 C 
ATOM      8  C   UNL     1       0.142  -3.942  -0.234  1.00  0.00    -0.020 A 
ATOM      9  C   UNL     1       1.480  -2.394   1.282  1.00  0.00    -0.011 A 
ATOM     10  C   UNL     1       0.970  -0.033   0.794  1.00  0.00    -0.007 C 
ATOM     11  C   UNL     1       1.187  -3.619   0.664  1.00  0.00     0.010 A 
ATOM     12  C   UNL     1       1.956  -4.748   0.882  1.00  0.00     0.046 A 
ATOM     13  C   UNL     1       0.288  -5.270  -0.561  1.00  0.00     0.087 A 
ATOM     14  C   UNL     1       2.587  -2.345   2.133  1.00  0.00     0.009 A 
ATOM     15  C   UNL     1       3.064  -4.722   1.733  1.00  0.00     0.027 A 
ATOM     16  C   UNL     1       3.360  -3.495   2.354  1.00  0.00     0.003 A 
ATOM     17  H   UNL     1       1.738  -6.695   0.067  1.00  0.00     0.166 HD
ENDROOT
BRANCH   7  18
ATOM     18  C   UNL     1       0.828   2.014  -0.677  1.00  0.00     0.230 C 
ATOM     19  O   UNL     1       1.850   1.649  -1.266  1.00  0.00    -0.274 OA
ATOM     20  N   UNL     1       0.307   3.308  -0.862  1.00  0.00    -0.343 N 
BRANCH  20  21
ATOM     21  C   UNL     1      -0.698   3.894   0.040  1.00  0.00     0.116 C 
ATOM     22  C   UNL     1      -1.491   5.059  -0.535  1.00  0.00     0.027 C 
ENDBRANCH  20  21
BRANCH  20  23
ATOM     23  C   UNL     1       1.134   4.221  -1.662  1.00  0.00     0.116 C 
ATOM     24  C   UNL     1       2.178   4.947  -0.826  1.00  0.00     0.027 C 
ENDBRANCH  20  23
ENDBRANCH   7  18
BRANCH   1  25
ATOM     25  C   UNL     1      -3.081  -1.008  -0.339  1.00  0.00     0.082 C 
ATOM     26  C   UNL     1      -4.151   0.068  -0.177  1.00  0.00     0.021 C 
ENDBRANCH   1  25
TORSDOF 4
