REMARK SMILES CCN(CC)C(=O)[C@@H]1C=C2c3cccc4[nH]cc(c34)C[C@H]2N(C)C1
REMARK SMILES IDX 7 1 3 2 6 3 8 4 24 5 9 6 22 7 10 8 21 9 11 10 20 11 19 12
REMARK SMILES IDX 12 13 18 14 15 15 13 16 17 17 16 18 14 19 23 20 2 22 1 23
REMARK SMILES IDX 4 24 5 25
REMARK H PARENT 16 21
ROOT
ATOM      1  O   UNL     1       3.260   2.404  -0.417  1.00  0.00    -0.274 OA
ATOM      2  N   UNL     1       1.770   1.461  -1.873  1.00  0.00    -0.343 N 
ATOM      3  C   UNL     1       2.362   1.573  -0.614  1.00  0.00     0.230 C 
ENDROOT
BRANCH   3   4
ATOM      4  C   UNL     1       1.941   0.689   0.574  1.00  0.00     0.116 C 
ATOM      5  C   UNL     1       2.264  -0.798   0.333  1.00  0.00     0.102 C 
ATOM      6  C   UNL     1       0.521   0.934   1.014  1.00  0.00    -0.007 C 
ATOM      7  N   UNL     1       1.728  -1.719   1.356  1.00  0.00    -0.298 NA
ATOM      8  C   UNL     1      -0.257  -0.088   1.413  1.00  0.00    -0.026 C 
ATOM      9  C   UNL     1       0.262  -1.548   1.534  1.00  0.00     0.091 C 
ATOM     10  C   UNL     1      -1.710   0.082   1.622  1.00  0.00    -0.011 A 
ATOM     11  C   UNL     1      -0.528  -2.535   0.597  1.00  0.00     0.061 C 
ATOM     12  C   UNL     1      -2.451  -1.054   1.254  1.00  0.00     0.010 A 
ATOM     13  C   UNL     1      -2.411   1.198   2.080  1.00  0.00     0.009 A 
ATOM     14  C   UNL     1      -1.998  -2.304   0.763  1.00  0.00    -0.020 A 
ATOM     15  C   UNL     1      -3.832  -1.080   1.340  1.00  0.00     0.046 A 
ATOM     16  C   UNL     1      -3.811   1.162   2.169  1.00  0.00     0.003 A 
ATOM     17  C   UNL     1      -3.114  -3.079   0.547  1.00  0.00     0.087 A 
ATOM     18  N   UNL     1      -4.217  -2.329   0.901  1.00  0.00    -0.361 N 
ATOM     19  C   UNL     1      -4.552   0.025   1.800  1.00  0.00     0.027 A 
ATOM     20  C   UNL     1       2.434  -1.561   2.631  1.00  0.00     0.106 C 
ATOM     21  H   UNL     1      -5.175  -2.648   0.850  1.00  0.00     0.166 HD
ENDBRANCH   3   4
BRANCH   2  22
ATOM     22  C   UNL     1       2.216   2.417  -2.894  1.00  0.00     0.116 C 
ATOM     23  C   UNL     1       1.482   3.747  -2.798  1.00  0.00     0.027 C 
ENDBRANCH   2  22
BRANCH   2  24
ATOM     24  C   UNL     1       0.592   0.649  -2.210  1.00  0.00     0.116 C 
ATOM     25  C   UNL     1       0.884  -0.409  -3.266  1.00  0.00     0.027 C 
ENDBRANCH   2  24
TORSDOF 3
