REMARK SMILES CCCN1C[C@H](C(=O)N(CC)CC)C=C2c3cccc4[nH]cc(c34)C[C@H]21
REMARK SMILES IDX 4 1 21 2 26 3 15 4 25 5 5 6 6 7 23 8 16 9 14 10 24 11 20 12
REMARK SMILES IDX 22 13 17 14 19 15 18 16 7 18 8 19 9 20 10 21 11 22 12 23
REMARK SMILES IDX 13 24 3 25 2 26 1 27
REMARK H PARENT 21 17
ROOT
ATOM      1  N   UNL     1      -1.721  -0.324   1.061  1.00  0.00    -0.295 NA
ATOM      2  N   UNL     1      -1.633  -2.788  -4.458  1.00  0.00    -0.361 N 
ATOM      3  C   UNL     1      -1.260  -0.882  -0.255  1.00  0.00     0.091 C 
ATOM      4  C   UNL     1      -0.346   0.088  -1.079  1.00  0.00    -0.026 C 
ATOM      5  C   UNL     1      -2.419  -1.576  -1.063  1.00  0.00     0.061 C 
ATOM      6  C   UNL     1      -0.561   0.275   1.758  1.00  0.00     0.102 C 
ATOM      7  C   UNL     1       0.106   1.424   0.979  1.00  0.00     0.116 C 
ATOM      8  C   UNL     1      -1.955  -1.980  -2.417  1.00  0.00    -0.020 A 
ATOM      9  C   UNL     1      -0.074  -0.264  -2.496  1.00  0.00    -0.011 A 
ATOM     10  C   UNL     1       0.238   1.157  -0.498  1.00  0.00    -0.007 C 
ATOM     11  C   UNL     1      -0.876  -1.292  -3.013  1.00  0.00     0.010 A 
ATOM     12  C   UNL     1      -0.697  -1.789  -4.295  1.00  0.00     0.046 A 
ATOM     13  C   UNL     1      -2.407  -2.909  -3.325  1.00  0.00     0.087 A 
ATOM     14  C   UNL     1       0.908   0.260  -3.350  1.00  0.00     0.009 A 
ATOM     15  C   UNL     1       0.281  -1.279  -5.150  1.00  0.00     0.027 A 
ATOM     16  C   UNL     1       1.076  -0.238  -4.650  1.00  0.00     0.003 A 
ATOM     17  H   UNL     1      -1.745  -3.337  -5.299  1.00  0.00     0.166 HD
ENDROOT
BRANCH   7  18
ATOM     18  C   UNL     1       1.412   1.856   1.672  1.00  0.00     0.230 C 
ATOM     19  O   UNL     1       1.399   2.921   2.306  1.00  0.00    -0.274 OA
ATOM     20  N   UNL     1       2.562   1.070   1.640  1.00  0.00    -0.343 N 
BRANCH  20  21
ATOM     21  C   UNL     1       3.706   1.524   2.438  1.00  0.00     0.116 C 
ATOM     22  C   UNL     1       3.613   1.039   3.877  1.00  0.00     0.027 C 
ENDBRANCH  20  21
BRANCH  20  23
ATOM     23  C   UNL     1       2.746  -0.184   0.902  1.00  0.00     0.116 C 
ATOM     24  C   UNL     1       3.571   0.006  -0.363  1.00  0.00     0.027 C 
ENDBRANCH  20  23
ENDBRANCH   7  18
BRANCH   1  25
ATOM     25  C   UNL     1      -2.861   0.605   0.937  1.00  0.00     0.085 C 
BRANCH  25  26
ATOM     26  C   UNL     1      -3.378   1.213   2.252  1.00  0.00     0.012 C 
ATOM     27  C   UNL     1      -3.814   0.166   3.268  1.00  0.00     0.005 C 
ENDBRANCH  25  26
ENDBRANCH   1  25
TORSDOF 5
