
     RDKit          3D

 24 27  0  0  0  0  0  0  0  0999 V2000
   -4.8692    1.3707   -2.1963 C   0  0  0  0  0  0  0  0  0  0  0  0
   -4.4639   -0.0354   -1.7775 C   0  0  0  0  0  0  0  0  0  0  0  0
   -3.4973   -0.0265   -0.6733 N   0  0  0  0  0  0  0  0  0  0  0  0
   -4.0496    0.0104    0.6866 C   0  0  0  0  0  0  0  0  0  0  0  0
   -4.6668   -1.3173    1.1059 C   0  0  0  0  0  0  0  0  0  0  0  0
   -2.1494    0.1335   -1.0149 C   0  0  0  0  0  0  0  0  0  0  0  0
   -1.8080    0.2025   -2.2009 O   0  0  0  0  0  0  0  0  0  0  0  0
   -1.0953    0.2165    0.1097 C   0  0  2  0  0  0  0  0  0  0  0  0
    0.1926    0.8311   -0.4003 C   0  0  0  0  0  0  0  0  0  0  0  0
    1.4034    0.3070   -0.1234 C   0  0  0  0  0  0  0  0  0  0  0  0
    2.6369    0.8441   -0.7509 C   0  0  0  0  0  0  0  0  0  0  0  0
    2.7496    1.6670   -1.8795 C   0  0  0  0  0  0  0  0  0  0  0  0
    4.0072    2.0499   -2.3681 C   0  0  0  0  0  0  0  0  0  0  0  0
    5.1974    1.6230   -1.7602 C   0  0  0  0  0  0  0  0  0  0  0  0
    5.0720    0.7970   -0.6416 C   0  0  0  0  0  0  0  0  0  0  0  0
    6.0087    0.1998    0.1746 N   0  0  0  0  0  0  0  0  0  0  0  0
    5.3870   -0.5251    1.1680 C   0  0  0  0  0  0  0  0  0  0  0  0
    4.0301   -0.3965    0.9842 C   0  0  0  0  0  0  0  0  0  0  0  0
    3.8321    0.4226   -0.1491 C   0  0  0  0  0  0  0  0  0  0  0  0
    2.8488   -0.8978    1.7379 C   0  0  0  0  0  0  0  0  0  0  0  0
    1.5681   -0.9253    0.8196 C   0  0  1  0  0  0  0  0  0  0  0  0
    0.3286   -1.2845    1.5763 N   0  0  0  0  0  0  0  0  0  0  0  0
    0.1262   -0.4965    2.7916 C   0  0  0  0  0  0  0  0  0  0  0  0
   -0.8418   -1.1925    0.6784 C   0  0  0  0  0  0  0  0  0  0  0  0
  1  2  1  0
  2  3  1  0
  3  4  1  0
  4  5  1  0
  3  6  1  0
  6  7  2  0
  8  6  1  6
  8  9  1  0
  9 10  2  0
 10 11  1  0
 11 12  2  0
 12 13  1  0
 13 14  2  0
 14 15  1  0
 15 16  1  0
 16 17  1  0
 17 18  2  0
 18 19  1  0
 18 20  1  0
 21 20  1  1
 21 22  1  0
 22 23  1  0
 22 24  1  0
 24  8  1  0
 21 10  1  0
 19 11  1  0
 19 15  2  0
M  END
$$$$
