
     RDKit          3D

 24 27  0  0  0  0  0  0  0  0999 V2000
   -5.5264    0.5377   -0.9239 C   0  0  0  0  0  0  0  0  0  0  0  0
   -4.4508    1.3754   -0.2482 C   0  0  0  0  0  0  0  0  0  0  0  0
   -3.2931    0.5909    0.1908 N   0  0  0  0  0  0  0  0  0  0  0  0
   -3.2820    0.1226    1.5805 C   0  0  0  0  0  0  0  0  0  0  0  0
   -3.9837   -1.2135    1.7648 C   0  0  0  0  0  0  0  0  0  0  0  0
   -2.3540    0.2300   -0.7840 C   0  0  0  0  0  0  0  0  0  0  0  0
   -2.4903    0.5889   -1.9571 O   0  0  0  0  0  0  0  0  0  0  0  0
   -1.1233   -0.5851   -0.3444 C   0  0  2  0  0  0  0  0  0  0  0  0
   -0.0602    0.3475    0.1938 C   0  0  0  0  0  0  0  0  0  0  0  0
    1.2422    0.2139   -0.1293 C   0  0  0  0  0  0  0  0  0  0  0  0
    2.2515    1.2100    0.3112 C   0  0  0  0  0  0  0  0  0  0  0  0
    2.0396    2.5131    0.7813 C   0  0  0  0  0  0  0  0  0  0  0  0
    3.1203    3.3406    1.1199 C   0  0  0  0  0  0  0  0  0  0  0  0
    4.4491    2.9080    0.9968 C   0  0  0  0  0  0  0  0  0  0  0  0
    4.6474    1.6106    0.5210 C   0  0  0  0  0  0  0  0  0  0  0  0
    5.7919    0.8833    0.2730 N   0  0  0  0  0  0  0  0  0  0  0  0
    5.4703   -0.3748   -0.1878 C   0  0  0  0  0  0  0  0  0  0  0  0
    4.0985   -0.4553   -0.2430 C   0  0  0  0  0  0  0  0  0  0  0  0
    3.5836    0.7856    0.1926 C   0  0  0  0  0  0  0  0  0  0  0  0
    3.1576   -1.5471   -0.6148 C   0  0  0  0  0  0  0  0  0  0  0  0
    1.7541   -0.9602   -1.0255 C   0  0  1  0  0  0  0  0  0  0  0  0
    0.7375   -2.0267   -1.2787 N   0  0  0  0  0  0  0  0  0  0  0  0
    0.6500   -3.0349   -0.2247 C   0  0  0  0  0  0  0  0  0  0  0  0
   -0.5772   -1.3996   -1.5390 C   0  0  0  0  0  0  0  0  0  0  0  0
  1  2  1  0
  2  3  1  0
  3  4  1  0
  4  5  1  0
  3  6  1  0
  6  7  2  0
  8  6  1  6
  8  9  1  0
  9 10  2  0
 10 11  1  0
 11 12  2  0
 12 13  1  0
 13 14  2  0
 14 15  1  0
 15 16  1  0
 16 17  1  0
 17 18  2  0
 18 19  1  0
 18 20  1  0
 21 20  1  1
 21 22  1  0
 22 23  1  0
 22 24  1  0
 24  8  1  0
 21 10  1  0
 19 11  1  0
 19 15  2  0
M  END
$$$$
