
     RDKit          3D

 24 27  0  0  0  0  0  0  0  0999 V2000
   -5.4579   -1.4656   -0.3795 C   0  0  0  0  0  0  0  0  0  0  0  0
   -4.6150   -0.3277   -0.9361 C   0  0  0  0  0  0  0  0  0  0  0  0
   -3.3944   -0.0776   -0.1652 N   0  0  0  0  0  0  0  0  0  0  0  0
   -3.4474    0.9620    0.8682 C   0  0  0  0  0  0  0  0  0  0  0  0
   -3.9362    0.4431    2.2110 C   0  0  0  0  0  0  0  0  0  0  0  0
   -2.3118   -0.9409   -0.3734 C   0  0  0  0  0  0  0  0  0  0  0  0
   -2.3800   -1.8557   -1.2002 O   0  0  0  0  0  0  0  0  0  0  0  0
   -1.0167   -0.6914    0.4198 C   0  0  2  0  0  0  0  0  0  0  0  0
   -0.1872    0.3598   -0.2763 C   0  0  0  0  0  0  0  0  0  0  0  0
    1.1531    0.2583   -0.3549 C   0  0  0  0  0  0  0  0  0  0  0  0
    1.9547    1.2775   -1.0711 C   0  0  0  0  0  0  0  0  0  0  0  0
    1.5579    2.1347   -2.1039 C   0  0  0  0  0  0  0  0  0  0  0  0
    2.4681    3.0392   -2.6701 C   0  0  0  0  0  0  0  0  0  0  0  0
    3.8003    3.1215   -2.2328 C   0  0  0  0  0  0  0  0  0  0  0  0
    4.1813    2.2553   -1.2058 C   0  0  0  0  0  0  0  0  0  0  0  0
    5.3782    2.0642   -0.5493 N   0  0  0  0  0  0  0  0  0  0  0  0
    5.2504    1.0764    0.4045 C   0  0  0  0  0  0  0  0  0  0  0  0
    3.9519    0.6250    0.3607 C   0  0  0  0  0  0  0  0  0  0  0  0
    3.2863    1.3613   -0.6429 C   0  0  0  0  0  0  0  0  0  0  0  0
    3.1992   -0.4063    1.1303 C   0  0  0  0  0  0  0  0  0  0  0  0
    1.9443   -0.9095    0.3179 C   0  0  1  0  0  0  0  0  0  0  0  0
    1.0874   -1.7745    1.1883 N   0  0  0  0  0  0  0  0  0  0  0  0
    1.7269   -3.0650    1.4610 C   0  0  0  0  0  0  0  0  0  0  0  0
   -0.2239   -2.0072    0.5450 C   0  0  0  0  0  0  0  0  0  0  0  0
  1  2  1  0
  2  3  1  0
  3  4  1  0
  4  5  1  0
  3  6  1  0
  6  7  2  0
  8  6  1  6
  8  9  1  0
  9 10  2  0
 10 11  1  0
 11 12  2  0
 12 13  1  0
 13 14  2  0
 14 15  1  0
 15 16  1  0
 16 17  1  0
 17 18  2  0
 18 19  1  0
 18 20  1  0
 21 20  1  1
 21 22  1  0
 22 23  1  0
 22 24  1  0
 24  8  1  0
 21 10  1  0
 19 11  1  0
 19 15  2  0
M  END
$$$$
