
     RDKit          3D

 24 27  0  0  0  0  0  0  0  0999 V2000
   -5.0949   -1.3052    0.7637 C   0  0  0  0  0  0  0  0  0  0  0  0
   -4.6060   -1.4385   -0.6719 C   0  0  0  0  0  0  0  0  0  0  0  0
   -3.4655   -0.5635   -0.9633 N   0  0  0  0  0  0  0  0  0  0  0  0
   -3.7372    0.6376   -1.7635 C   0  0  0  0  0  0  0  0  0  0  0  0
   -4.6336    1.6399   -1.0514 C   0  0  0  0  0  0  0  0  0  0  0  0
   -2.2055   -0.9983   -0.5384 C   0  0  0  0  0  0  0  0  0  0  0  0
   -2.0847   -2.0615    0.0806 O   0  0  0  0  0  0  0  0  0  0  0  0
   -0.9746   -0.1177   -0.8303 C   0  0  2  0  0  0  0  0  0  0  0  0
    0.2977   -0.9296   -0.7889 C   0  0  0  0  0  0  0  0  0  0  0  0
    1.4199   -0.4565   -0.2158 C   0  0  0  0  0  0  0  0  0  0  0  0
    2.6439   -1.2871   -0.1397 C   0  0  0  0  0  0  0  0  0  0  0  0
    2.7552   -2.6820   -0.1566 C   0  0  0  0  0  0  0  0  0  0  0  0
    4.0115   -3.2989   -0.0648 C   0  0  0  0  0  0  0  0  0  0  0  0
    5.1965   -2.5535    0.0495 C   0  0  0  0  0  0  0  0  0  0  0  0
    5.0670   -1.1631    0.0712 C   0  0  0  0  0  0  0  0  0  0  0  0
    5.9920   -0.1463    0.1734 N   0  0  0  0  0  0  0  0  0  0  0  0
    5.3621    1.0804    0.1489 C   0  0  0  0  0  0  0  0  0  0  0  0
    4.0115    0.8491    0.0287 C   0  0  0  0  0  0  0  0  0  0  0  0
    3.8292   -0.5496   -0.0204 C   0  0  0  0  0  0  0  0  0  0  0  0
    2.8223    1.7431   -0.0623 C   0  0  0  0  0  0  0  0  0  0  0  0
    1.5107    0.9838    0.3774 C   0  0  1  0  0  0  0  0  0  0  0  0
    0.3092    1.8233    0.0711 N   0  0  0  0  0  0  0  0  0  0  0  0
    0.2289    2.9890    0.9562 C   0  0  0  0  0  0  0  0  0  0  0  0
   -0.9270    1.0250    0.1975 C   0  0  0  0  0  0  0  0  0  0  0  0
  1  2  1  0
  2  3  1  0
  3  4  1  0
  4  5  1  0
  3  6  1  0
  6  7  2  0
  8  6  1  1
  8  9  1  0
  9 10  2  0
 10 11  1  0
 11 12  2  0
 12 13  1  0
 13 14  2  0
 14 15  1  0
 15 16  1  0
 16 17  1  0
 17 18  2  0
 18 19  1  0
 18 20  1  0
 21 20  1  6
 21 22  1  0
 22 23  1  0
 22 24  1  0
 24  8  1  0
 21 10  1  0
 19 11  1  0
 19 15  2  0
M  END
$$$$
