
     RDKit          3D

 24 27  0  0  0  0  0  0  0  0999 V2000
   -2.2987    1.8737   -0.9235 C   0  0  0  0  0  0  0  0  0  0  0  0
   -2.4477    0.3590   -0.8881 C   0  0  0  0  0  0  0  0  0  0  0  0
   -3.1236   -0.1054    0.3282 N   0  0  0  0  0  0  0  0  0  0  0  0
   -4.5818    0.0515    0.3572 C   0  0  0  0  0  0  0  0  0  0  0  0
   -5.2909   -1.2025   -0.1327 C   0  0  0  0  0  0  0  0  0  0  0  0
   -2.5247   -0.6936    1.4394 C   0  0  0  0  0  0  0  0  0  0  0  0
   -3.2055   -1.0102    2.4249 O   0  0  0  0  0  0  0  0  0  0  0  0
   -1.0206   -1.0238    1.4770 C   0  0  2  0  0  0  0  0  0  0  0  0
   -0.1161    0.1607    1.2540 C   0  0  0  0  0  0  0  0  0  0  0  0
    0.9692    0.0843    0.4570 C   0  0  0  0  0  0  0  0  0  0  0  0
    1.7701    1.2906    0.1264 C   0  0  0  0  0  0  0  0  0  0  0  0
    1.4463    2.6371    0.3453 C   0  0  0  0  0  0  0  0  0  0  0  0
    2.2974    3.6642   -0.0877 C   0  0  0  0  0  0  0  0  0  0  0  0
    3.4984    3.3937   -0.7589 C   0  0  0  0  0  0  0  0  0  0  0  0
    3.8136    2.0500   -0.9669 C   0  0  0  0  0  0  0  0  0  0  0  0
    4.8897    1.4398   -1.5753 N   0  0  0  0  0  0  0  0  0  0  0  0
    4.7625    0.0698   -1.5109 C   0  0  0  0  0  0  0  0  0  0  0  0
    3.5835   -0.2043   -0.8581 C   0  0  0  0  0  0  0  0  0  0  0  0
    2.9815    1.0305   -0.5319 C   0  0  0  0  0  0  0  0  0  0  0  0
    2.9321   -1.4709   -0.4304 C   0  0  0  0  0  0  0  0  0  0  0  0
    1.3856   -1.2640   -0.2187 C   0  0  1  0  0  0  0  0  0  0  0  0
    0.7330   -2.4749    0.3686 N   0  0  0  0  0  0  0  0  0  0  0  0
    1.3581   -2.9371    1.6100 C   0  0  0  0  0  0  0  0  0  0  0  0
   -0.7100   -2.2283    0.5687 C   0  0  0  0  0  0  0  0  0  0  0  0
  1  2  1  0
  2  3  1  0
  3  4  1  0
  4  5  1  0
  3  6  1  0
  6  7  2  0
  8  6  1  6
  8  9  1  0
  9 10  2  0
 10 11  1  0
 11 12  2  0
 12 13  1  0
 13 14  2  0
 14 15  1  0
 15 16  1  0
 16 17  1  0
 17 18  2  0
 18 19  1  0
 18 20  1  0
 21 20  1  1
 21 22  1  0
 22 23  1  0
 22 24  1  0
 24  8  1  0
 21 10  1  0
 19 11  1  0
 19 15  2  0
M  END
$$$$
