
     RDKit          3D

 24 27  0  0  0  0  0  0  0  0999 V2000
    4.9838    2.1798    0.0500 C   0  0  0  0  0  0  0  0  0  0  0  0
    4.5780    1.1858    1.1282 C   0  0  0  0  0  0  0  0  0  0  0  0
    3.5420    0.2440    0.6936 N   0  0  0  0  0  0  0  0  0  0  0  0
    3.9852   -1.0489    0.1626 C   0  0  0  0  0  0  0  0  0  0  0  0
    4.2710   -1.0157   -1.3304 C   0  0  0  0  0  0  0  0  0  0  0  0
    2.2220    0.7079    0.6721 C   0  0  0  0  0  0  0  0  0  0  0  0
    1.9489    1.8594    1.0251 O   0  0  0  0  0  0  0  0  0  0  0  0
    1.1111   -0.2674    0.2389 C   0  0  2  0  0  0  0  0  0  0  0  0
   -0.0553    0.4746   -0.3743 C   0  0  0  0  0  0  0  0  0  0  0  0
   -1.3332    0.1996   -0.0438 C   0  0  0  0  0  0  0  0  0  0  0  0
   -2.4555    1.0266   -0.5536 C   0  0  0  0  0  0  0  0  0  0  0  0
   -2.4035    2.3076   -1.1190 C   0  0  0  0  0  0  0  0  0  0  0  0
   -3.5761    2.9681   -1.5132 C   0  0  0  0  0  0  0  0  0  0  0  0
   -4.8422    2.3852   -1.3528 C   0  0  0  0  0  0  0  0  0  0  0  0
   -4.8814    1.1121   -0.7810 C   0  0  0  0  0  0  0  0  0  0  0  0
   -5.9284    0.2697   -0.4743 N   0  0  0  0  0  0  0  0  0  0  0  0
   -5.4563   -0.9012    0.0778 C   0  0  0  0  0  0  0  0  0  0  0  0
   -4.0853   -0.8077    0.1323 C   0  0  0  0  0  0  0  0  0  0  0  0
   -3.7255    0.4512   -0.3973 C   0  0  0  0  0  0  0  0  0  0  0  0
   -3.0181   -1.7443    0.5784 C   0  0  0  0  0  0  0  0  0  0  0  0
   -1.6983   -0.9607    0.9363 C   0  0  1  0  0  0  0  0  0  0  0  0
   -0.5578   -1.8751    1.2580 N   0  0  0  0  0  0  0  0  0  0  0  0
   -0.3396   -2.9253    0.2645 C   0  0  0  0  0  0  0  0  0  0  0  0
    0.6675   -1.0773    1.4731 C   0  0  0  0  0  0  0  0  0  0  0  0
  1  2  1  0
  2  3  1  0
  3  4  1  0
  4  5  1  0
  3  6  1  0
  6  7  2  0
  8  6  1  1
  8  9  1  0
  9 10  2  0
 10 11  1  0
 11 12  2  0
 12 13  1  0
 13 14  2  0
 14 15  1  0
 15 16  1  0
 16 17  1  0
 17 18  2  0
 18 19  1  0
 18 20  1  0
 21 20  1  6
 21 22  1  0
 22 23  1  0
 22 24  1  0
 24  8  1  0
 21 10  1  0
 19 11  1  0
 19 15  2  0
M  END
$$$$
