
     RDKit          3D

 24 27  0  0  0  0  0  0  0  0999 V2000
   -3.2181   -2.4916   -0.5266 C   0  0  0  0  0  0  0  0  0  0  0  0
   -3.3578   -1.0923   -1.1114 C   0  0  0  0  0  0  0  0  0  0  0  0
   -3.3367   -0.0468   -0.0832 N   0  0  0  0  0  0  0  0  0  0  0  0
   -4.5461    0.0972    0.7344 C   0  0  0  0  0  0  0  0  0  0  0  0
   -5.5645    1.0298    0.0940 C   0  0  0  0  0  0  0  0  0  0  0  0
   -2.3442    0.9325    0.0754 C   0  0  0  0  0  0  0  0  0  0  0  0
   -2.5137    1.8568    0.8774 O   0  0  0  0  0  0  0  0  0  0  0  0
   -1.0622    0.8502   -0.7869 C   0  0  2  0  0  0  0  0  0  0  0  0
   -0.1844   -0.3110   -0.3841 C   0  0  0  0  0  0  0  0  0  0  0  0
    1.0300   -0.1408    0.1689 C   0  0  0  0  0  0  0  0  0  0  0  0
    1.9439   -1.2844    0.3759 C   0  0  0  0  0  0  0  0  0  0  0  0
    1.6404   -2.6114    0.6877 C   0  0  0  0  0  0  0  0  0  0  0  0
    2.6665   -3.5602    0.8087 C   0  0  0  0  0  0  0  0  0  0  0  0
    4.0191   -3.2227    0.6190 C   0  0  0  0  0  0  0  0  0  0  0  0
    4.3013   -1.8901    0.3080 C   0  0  0  0  0  0  0  0  0  0  0  0
    5.4800   -1.2186    0.0623 N   0  0  0  0  0  0  0  0  0  0  0  0
    5.2312    0.1145   -0.1973 C   0  0  0  0  0  0  0  0  0  0  0  0
    3.8716    0.3059   -0.1164 C   0  0  0  0  0  0  0  0  0  0  0  0
    3.2942   -0.9490    0.1926 C   0  0  0  0  0  0  0  0  0  0  0  0
    2.9835    1.5013   -0.2682 C   0  0  0  0  0  0  0  0  0  0  0  0
    1.6232    1.2551    0.4954 C   0  0  1  0  0  0  0  0  0  0  0  0
    0.6163    2.3313    0.3883 N   0  0  0  0  0  0  0  0  0  0  0  0
    1.1534    3.6774    0.5073 C   0  0  0  0  0  0  0  0  0  0  0  0
   -0.2728    2.1870   -0.7697 C   0  0  0  0  0  0  0  0  0  0  0  0
  1  2  1  0
  2  3  1  0
  3  4  1  0
  4  5  1  0
  3  6  1  0
  6  7  2  0
  8  6  1  1
  8  9  1  0
  9 10  2  0
 10 11  1  0
 11 12  2  0
 12 13  1  0
 13 14  2  0
 14 15  1  0
 15 16  1  0
 16 17  1  0
 17 18  2  0
 18 19  1  0
 18 20  1  0
 21 20  1  6
 21 22  1  0
 22 23  1  0
 22 24  1  0
 24  8  1  0
 21 10  1  0
 19 11  1  0
 19 15  2  0
M  END
$$$$
