
     RDKit          3D

 24 27  0  0  0  0  0  0  0  0999 V2000
    4.1301    0.6966   -2.3842 C   0  0  0  0  0  0  0  0  0  0  0  0
    3.5189    1.1062   -1.0527 C   0  0  0  0  0  0  0  0  0  0  0  0
    3.4263   -0.0255   -0.1283 N   0  0  0  0  0  0  0  0  0  0  0  0
    4.6032   -0.2910    0.7018 C   0  0  0  0  0  0  0  0  0  0  0  0
    4.5064    0.4093    2.0483 C   0  0  0  0  0  0  0  0  0  0  0  0
    2.3312   -0.8900    0.0015 C   0  0  0  0  0  0  0  0  0  0  0  0
    2.3798   -1.8463    0.7799 O   0  0  0  0  0  0  0  0  0  0  0  0
    1.0681   -0.5952   -0.8332 C   0  0  2  0  0  0  0  0  0  0  0  0
    0.2044    0.4237   -0.1275 C   0  0  0  0  0  0  0  0  0  0  0  0
   -1.0325    0.1326    0.3128 C   0  0  0  0  0  0  0  0  0  0  0  0
   -1.9395    1.1895    0.8079 C   0  0  0  0  0  0  0  0  0  0  0  0
   -1.6354    2.3607    1.5044 C   0  0  0  0  0  0  0  0  0  0  0  0
   -2.6551    3.2595    1.8510 C   0  0  0  0  0  0  0  0  0  0  0  0
   -4.0007    3.0268    1.5121 C   0  0  0  0  0  0  0  0  0  0  0  0
   -4.2834    1.8495    0.8148 C   0  0  0  0  0  0  0  0  0  0  0  0
   -5.4563    1.3087    0.3323 N   0  0  0  0  0  0  0  0  0  0  0  0
   -5.2110    0.1016   -0.2919 C   0  0  0  0  0  0  0  0  0  0  0  0
   -3.8596   -0.1407   -0.2097 C   0  0  0  0  0  0  0  0  0  0  0  0
   -3.2832    0.9564    0.4755 C   0  0  0  0  0  0  0  0  0  0  0  0
   -2.9791   -1.2655   -0.6595 C   0  0  0  0  0  0  0  0  0  0  0  0
   -1.6581   -1.2824    0.2049 C   0  0  1  0  0  0  0  0  0  0  0  0
   -0.6612   -2.3147   -0.1460 N   0  0  0  0  0  0  0  0  0  0  0  0
   -1.2218   -3.6289   -0.4166 C   0  0  0  0  0  0  0  0  0  0  0  0
    0.2901   -1.8908   -1.1771 C   0  0  0  0  0  0  0  0  0  0  0  0
  1  2  1  0
  2  3  1  0
  3  4  1  0
  4  5  1  0
  3  6  1  0
  6  7  2  0
  8  6  1  1
  8  9  1  0
  9 10  2  0
 10 11  1  0
 11 12  2  0
 12 13  1  0
 13 14  2  0
 14 15  1  0
 15 16  1  0
 16 17  1  0
 17 18  2  0
 18 19  1  0
 18 20  1  0
 21 20  1  6
 21 22  1  0
 22 23  1  0
 22 24  1  0
 24  8  1  0
 21 10  1  0
 19 11  1  0
 19 15  2  0
M  END
$$$$
