
     RDKit          3D

 24 27  0  0  0  0  0  0  0  0999 V2000
    3.0729   -1.6106    1.2934 C   0  0  0  0  0  0  0  0  0  0  0  0
    2.6729   -0.2184    0.8274 C   0  0  0  0  0  0  0  0  0  0  0  0
    3.1709    0.0832   -0.5157 N   0  0  0  0  0  0  0  0  0  0  0  0
    4.5842    0.4601   -0.6143 C   0  0  0  0  0  0  0  0  0  0  0  0
    4.7904    1.9584   -0.4429 C   0  0  0  0  0  0  0  0  0  0  0  0
    2.4008    0.1842   -1.6677 C   0  0  0  0  0  0  0  0  0  0  0  0
    2.9168    0.5674   -2.7288 O   0  0  0  0  0  0  0  0  0  0  0  0
    0.8972   -0.1562   -1.6939 C   0  0  2  0  0  0  0  0  0  0  0  0
    0.0321    0.8556   -0.9929 C   0  0  0  0  0  0  0  0  0  0  0  0
   -0.9388    0.4711   -0.1462 C   0  0  0  0  0  0  0  0  0  0  0  0
   -1.9595    1.4235    0.3355 C   0  0  0  0  0  0  0  0  0  0  0  0
   -1.8336    2.7818    0.6301 C   0  0  0  0  0  0  0  0  0  0  0  0
   -2.9548    3.5195    1.0382 C   0  0  0  0  0  0  0  0  0  0  0  0
   -4.2296    2.9351    1.1567 C   0  0  0  0  0  0  0  0  0  0  0  0
   -4.3343    1.5756    0.8512 C   0  0  0  0  0  0  0  0  0  0  0  0
   -5.3973    0.6977    0.8483 N   0  0  0  0  0  0  0  0  0  0  0  0
   -4.9820   -0.5632    0.4671 C   0  0  0  0  0  0  0  0  0  0  0  0
   -3.6308   -0.4980    0.2192 C   0  0  0  0  0  0  0  0  0  0  0  0
   -3.2316    0.8411    0.4550 C   0  0  0  0  0  0  0  0  0  0  0  0
   -2.6029   -1.5051   -0.1991 C   0  0  0  0  0  0  0  0  0  0  0  0
   -1.1738   -1.0106    0.2523 C   0  0  1  0  0  0  0  0  0  0  0  0
   -0.0240   -1.8841   -0.0823 N   0  0  0  0  0  0  0  0  0  0  0  0
   -0.2748   -3.3022    0.1394 C   0  0  0  0  0  0  0  0  0  0  0  0
    0.5525   -1.6321   -1.4090 C   0  0  0  0  0  0  0  0  0  0  0  0
  1  2  1  0
  2  3  1  0
  3  4  1  0
  4  5  1  0
  3  6  1  0
  6  7  2  0
  8  6  1  1
  8  9  1  0
  9 10  2  0
 10 11  1  0
 11 12  2  0
 12 13  1  0
 13 14  2  0
 14 15  1  0
 15 16  1  0
 16 17  1  0
 17 18  2  0
 18 19  1  0
 18 20  1  0
 21 20  1  6
 21 22  1  0
 22 23  1  0
 22 24  1  0
 24  8  1  0
 21 10  1  0
 19 11  1  0
 19 15  2  0
M  END
$$$$
