
     RDKit          3D

 24 27  0  0  0  0  0  0  0  0999 V2000
   -4.8594   -0.8343   -1.9399 C   0  0  0  0  0  0  0  0  0  0  0  0
   -4.5490    0.5093   -1.2990 C   0  0  0  0  0  0  0  0  0  0  0  0
   -3.5126    0.3860   -0.2715 N   0  0  0  0  0  0  0  0  0  0  0  0
   -3.9729    0.2062    1.1068 C   0  0  0  0  0  0  0  0  0  0  0  0
   -4.2553    1.5382    1.7853 C   0  0  0  0  0  0  0  0  0  0  0  0
   -2.1779    0.5099   -0.6773 C   0  0  0  0  0  0  0  0  0  0  0  0
   -1.9000    0.7541   -1.8554 O   0  0  0  0  0  0  0  0  0  0  0  0
   -1.0764    0.3319    0.3880 C   0  0  2  0  0  0  0  0  0  0  0  0
    0.1774    1.0834    0.0138 C   0  0  0  0  0  0  0  0  0  0  0  0
    1.3285    0.4481   -0.2676 C   0  0  0  0  0  0  0  0  0  0  0  0
    2.5933    1.1911   -0.4441 C   0  0  0  0  0  0  0  0  0  0  0  0
    2.8022    2.4650   -0.9756 C   0  0  0  0  0  0  0  0  0  0  0  0
    4.0951    3.0074   -1.0191 C   0  0  0  0  0  0  0  0  0  0  0  0
    5.2139    2.3066   -0.5325 C   0  0  0  0  0  0  0  0  0  0  0  0
    4.9831    1.0336   -0.0046 C   0  0  0  0  0  0  0  0  0  0  0  0
    5.8186    0.0857    0.5464 N   0  0  0  0  0  0  0  0  0  0  0  0
    5.1001   -1.0321    0.9222 C   0  0  0  0  0  0  0  0  0  0  0  0
    3.7810   -0.8021    0.6075 C   0  0  0  0  0  0  0  0  0  0  0  0
    3.7113    0.4913    0.0357 C   0  0  0  0  0  0  0  0  0  0  0  0
    2.5285   -1.6122    0.7362 C   0  0  0  0  0  0  0  0  0  0  0  0
    1.4525   -1.0983   -0.2999 C   0  0  1  0  0  0  0  0  0  0  0  0
    0.1348   -1.7774   -0.2654 N   0  0  0  0  0  0  0  0  0  0  0  0
    0.2121   -3.2220   -0.1092 C   0  0  0  0  0  0  0  0  0  0  0  0
   -0.8084   -1.1639    0.6740 C   0  0  0  0  0  0  0  0  0  0  0  0
  1  2  1  0
  2  3  1  0
  3  4  1  0
  4  5  1  0
  3  6  1  0
  6  7  2  0
  8  6  1  6
  8  9  1  0
  9 10  2  0
 10 11  1  0
 11 12  2  0
 12 13  1  0
 13 14  2  0
 14 15  1  0
 15 16  1  0
 16 17  1  0
 17 18  2  0
 18 19  1  0
 18 20  1  0
 21 20  1  1
 21 22  1  0
 22 23  1  0
 22 24  1  0
 24  8  1  0
 21 10  1  0
 19 11  1  0
 19 15  2  0
M  END
$$$$
