
     RDKit          3D

 22 25  0  0  0  0  0  0  0  0999 V2000
    4.5691    0.3025    1.4282 C   0  0  0  0  0  0  0  0  0  0  0  0
    4.1523   -0.3704    0.2075 N   0  0  0  0  0  0  0  0  0  0  0  0
    5.2159   -1.0178   -0.5450 C   0  0  0  0  0  0  0  0  0  0  0  0
    2.8436   -0.8114   -0.0353 C   0  0  0  0  0  0  0  0  0  0  0  0
    2.6208   -1.6886   -0.8752 O   0  0  0  0  0  0  0  0  0  0  0  0
    1.7041   -0.1764    0.7913 C   0  0  2  0  0  0  0  0  0  0  0  0
    0.4475   -1.0114    0.7340 C   0  0  0  0  0  0  0  0  0  0  0  0
   -0.6756   -0.5677    0.1425 C   0  0  0  0  0  0  0  0  0  0  0  0
   -1.9478   -1.3109    0.2527 C   0  0  0  0  0  0  0  0  0  0  0  0
   -2.1613   -2.6880    0.3374 C   0  0  0  0  0  0  0  0  0  0  0  0
   -3.4628   -3.1926    0.4743 C   0  0  0  0  0  0  0  0  0  0  0  0
   -4.5866   -2.3482    0.5370 C   0  0  0  0  0  0  0  0  0  0  0  0
   -4.3511   -0.9736    0.4506 C   0  0  0  0  0  0  0  0  0  0  0  0
   -5.1893    0.1206    0.4749 N   0  0  0  0  0  0  0  0  0  0  0  0
   -4.4634    1.2884    0.3474 C   0  0  0  0  0  0  0  0  0  0  0  0
   -3.1367    0.9419    0.2380 C   0  0  0  0  0  0  0  0  0  0  0  0
   -3.0704   -0.4705    0.3099 C   0  0  0  0  0  0  0  0  0  0  0  0
   -1.8733    1.7241    0.0559 C   0  0  0  0  0  0  0  0  0  0  0  0
   -0.7620    0.8009   -0.5834 C   0  0  1  0  0  0  0  0  0  0  0  0
    0.5692    1.4231   -0.7857 N   0  0  0  0  0  0  0  0  0  0  0  0
    0.5182    2.7872   -1.2902 C   0  0  0  0  0  0  0  0  0  0  0  0
    1.4489    1.2925    0.3800 C   0  0  0  0  0  0  0  0  0  0  0  0
  1  2  1  0
  2  3  1  0
  2  4  1  0
  4  5  2  0
  6  4  1  6
  6  7  1  0
  7  8  2  0
  8  9  1  0
  9 10  2  0
 10 11  1  0
 11 12  2  0
 12 13  1  0
 13 14  1  0
 14 15  1  0
 15 16  2  0
 16 17  1  0
 16 18  1  0
 19 18  1  1
 19 20  1  0
 20 21  1  0
 20 22  1  0
 22  6  1  0
 19  8  1  0
 17  9  1  0
 17 13  2  0
M  END
$$$$
