
     RDKit          3D

 23 26  0  0  0  0  0  0  0  0999 V2000
    3.7043    2.3906    0.1556 C   0  0  0  0  0  0  0  0  0  0  0  0
    3.8722    0.9698   -0.3649 C   0  0  0  0  0  0  0  0  0  0  0  0
    3.6464   -0.0451    0.6681 N   0  0  0  0  0  0  0  0  0  0  0  0
    4.6918   -0.1755    1.6768 C   0  0  0  0  0  0  0  0  0  0  0  0
    2.6789   -1.0594    0.6164 C   0  0  0  0  0  0  0  0  0  0  0  0
    2.7517   -2.0250    1.3831 O   0  0  0  0  0  0  0  0  0  0  0  0
    1.5425   -0.9559   -0.4292 C   0  0  2  0  0  0  0  0  0  0  0  0
    0.6249    0.2111   -0.1471 C   0  0  0  0  0  0  0  0  0  0  0  0
   -0.6602    0.0478    0.2153 C   0  0  0  0  0  0  0  0  0  0  0  0
   -1.5843    1.1988    0.2992 C   0  0  0  0  0  0  0  0  0  0  0  0
   -1.3188    2.5185    0.6707 C   0  0  0  0  0  0  0  0  0  0  0  0
   -2.3430    3.4768    0.6501 C   0  0  0  0  0  0  0  0  0  0  0  0
   -3.6550    3.1565    0.2562 C   0  0  0  0  0  0  0  0  0  0  0  0
   -3.8996    1.8309   -0.1115 C   0  0  0  0  0  0  0  0  0  0  0  0
   -5.0344    1.1753   -0.5396 N   0  0  0  0  0  0  0  0  0  0  0  0
   -4.7615   -0.1572   -0.7772 C   0  0  0  0  0  0  0  0  0  0  0  0
   -3.4310   -0.3644   -0.4970 C   0  0  0  0  0  0  0  0  0  0  0  0
   -2.8950    0.8803   -0.0881 C   0  0  0  0  0  0  0  0  0  0  0  0
   -2.5410   -1.5675   -0.5308 C   0  0  0  0  0  0  0  0  0  0  0  0
   -1.3081   -1.3453    0.4307 C   0  0  1  0  0  0  0  0  0  0  0  0
   -0.3058   -2.4310    0.4618 N   0  0  0  0  0  0  0  0  0  0  0  0
   -0.8671   -3.7724    0.4813 C   0  0  0  0  0  0  0  0  0  0  0  0
    0.7464   -2.2831   -0.5500 C   0  0  0  0  0  0  0  0  0  0  0  0
  1  2  1  0
  2  3  1  0
  3  4  1  0
  3  5  1  0
  5  6  2  0
  7  5  1  1
  7  8  1  0
  8  9  2  0
  9 10  1  0
 10 11  2  0
 11 12  1  0
 12 13  2  0
 13 14  1  0
 14 15  1  0
 15 16  1  0
 16 17  2  0
 17 18  1  0
 17 19  1  0
 20 19  1  6
 20 21  1  0
 21 22  1  0
 21 23  1  0
 23  7  1  0
 20  9  1  0
 18 10  1  0
 18 14  2  0
M  END
$$$$
