
     RDKit          3D

 24 28  0  0  0  0  0  0  0  0999 V2000
    4.3009   -1.8496    0.7477 C   0  0  0  0  0  0  0  0  0  0  0  0
    5.7148   -1.3182    0.5442 C   0  0  0  0  0  0  0  0  0  0  0  0
    5.5391    0.0595   -0.0726 C   0  0  0  0  0  0  0  0  0  0  0  0
    4.1642    0.4507    0.2624 N   0  0  0  0  0  0  0  0  0  0  0  0
    3.3955   -0.8057    0.1038 C   0  0  0  0  0  0  0  0  0  0  0  0
    2.0079   -0.6865    0.7475 C   0  0  0  0  0  0  0  0  0  0  0  0
    1.6314   -1.5153    1.5832 O   0  0  0  0  0  0  0  0  0  0  0  0
    1.1289    0.5086    0.3270 C   0  0  2  0  0  0  0  0  0  0  0  0
   -0.2077    0.4839    1.0286 C   0  0  0  0  0  0  0  0  0  0  0  0
   -1.3613    0.3251    0.3567 C   0  0  0  0  0  0  0  0  0  0  0  0
   -2.6724    0.5079    1.0147 C   0  0  0  0  0  0  0  0  0  0  0  0
   -3.0436    0.2361    2.3326 C   0  0  0  0  0  0  0  0  0  0  0  0
   -4.3470    0.5155    2.7692 C   0  0  0  0  0  0  0  0  0  0  0  0
   -5.3152    1.0764    1.9158 C   0  0  0  0  0  0  0  0  0  0  0  0
   -4.9232    1.3427    0.6013 C   0  0  0  0  0  0  0  0  0  0  0  0
   -5.5884    1.8778   -0.4814 N   0  0  0  0  0  0  0  0  0  0  0  0
   -4.7554    1.9348   -1.5813 C   0  0  0  0  0  0  0  0  0  0  0  0
   -3.5338    1.4293   -1.2029 C   0  0  0  0  0  0  0  0  0  0  0  0
   -3.6409    1.0654    0.1631 C   0  0  0  0  0  0  0  0  0  0  0  0
   -2.2362    1.2054   -1.9169 C   0  0  0  0  0  0  0  0  0  0  0  0
   -1.4241    0.0818   -1.1714 C   0  0  1  0  0  0  0  0  0  0  0  0
   -0.1098   -0.1424   -1.8272 N   0  0  0  0  0  0  0  0  0  0  0  0
    0.2183   -1.5675   -1.8627 C   0  0  0  0  0  0  0  0  0  0  0  0
    0.9574    0.6601   -1.2013 C   0  0  0  0  0  0  0  0  0  0  0  0
  1  2  1  0
  2  3  1  0
  3  4  1  0
  4  5  1  0
  5  6  1  0
  6  7  2  0
  8  6  1  6
  8  9  1  0
  9 10  2  0
 10 11  1  0
 11 12  2  0
 12 13  1  0
 13 14  2  0
 14 15  1  0
 15 16  1  0
 16 17  1  0
 17 18  2  0
 18 19  1  0
 18 20  1  0
 21 20  1  6
 21 22  1  0
 22 23  1  0
 22 24  1  0
  5  1  1  0
 24  8  1  0
 21 10  1  0
 19 11  1  0
 19 15  2  0
M  END
$$$$
