
     RDKit          3D

 25 29  0  0  0  0  0  0  0  0999 V2000
    4.1413   -1.2135   -1.1508 C   0  0  0  0  0  0  0  0  0  0  0  0
    5.2698   -0.4501   -0.4657 C   0  0  0  0  0  0  0  0  0  0  0  0
    5.2852    1.0234   -0.8874 C   0  0  0  0  0  0  0  0  0  0  0  0
    3.9583    1.6023   -1.1248 N   0  0  0  0  0  0  0  0  0  0  0  0
    2.9125    0.8973   -0.3886 C   0  0  0  0  0  0  0  0  0  0  0  0
    2.7774   -0.5448   -0.8952 C   0  0  0  0  0  0  0  0  0  0  0  0
    1.9652   -1.3392    0.1269 C   0  0  0  0  0  0  0  0  0  0  0  0
    2.4965   -1.7256    1.1715 O   0  0  0  0  0  0  0  0  0  0  0  0
    0.5065   -1.6760   -0.2300 C   0  0  2  0  0  0  0  0  0  0  0  0
   -0.2791   -0.4620   -0.6529 C   0  0  0  0  0  0  0  0  0  0  0  0
   -1.3355   -0.0138    0.0467 C   0  0  0  0  0  0  0  0  0  0  0  0
   -2.2228    1.0405   -0.4910 C   0  0  0  0  0  0  0  0  0  0  0  0
   -1.9057    2.1313   -1.3031 C   0  0  0  0  0  0  0  0  0  0  0  0
   -2.9143    3.0067   -1.7323 C   0  0  0  0  0  0  0  0  0  0  0  0
   -4.2627    2.8234   -1.3749 C   0  0  0  0  0  0  0  0  0  0  0  0
   -4.5594    1.7249   -0.5642 C   0  0  0  0  0  0  0  0  0  0  0  0
   -5.7396    1.2467   -0.0350 N   0  0  0  0  0  0  0  0  0  0  0  0
   -5.5077    0.1116    0.7160 C   0  0  0  0  0  0  0  0  0  0  0  0
   -4.1579   -0.1471    0.6709 C   0  0  0  0  0  0  0  0  0  0  0  0
   -3.5694    0.8602   -0.1338 C   0  0  0  0  0  0  0  0  0  0  0  0
   -3.2825   -1.2007    1.2761 C   0  0  0  0  0  0  0  0  0  0  0  0
   -1.8093   -0.6552    1.3736 C   0  0  1  0  0  0  0  0  0  0  0  0
   -0.9084   -1.6910    1.9284 N   0  0  0  0  0  0  0  0  0  0  0  0
    0.0422   -1.1099    2.8777 C   0  0  0  0  0  0  0  0  0  0  0  0
   -0.2247   -2.4720    0.8793 C   0  0  0  0  0  0  0  0  0  0  0  0
  1  2  1  0
  2  3  1  0
  3  4  1  0
  4  5  1  0
  5  6  1  0
  6  7  1  0
  7  8  2  0
  9  7  1  1
  9 10  1  0
 10 11  2  0
 11 12  1  0
 12 13  2  0
 13 14  1  0
 14 15  2  0
 15 16  1  0
 16 17  1  0
 17 18  1  0
 18 19  2  0
 19 20  1  0
 19 21  1  0
 22 21  1  6
 22 23  1  0
 23 24  1  0
 23 25  1  0
  6  1  1  0
 25  9  1  0
 22 11  1  0
 20 12  1  0
 20 16  2  0
M  END
$$$$
