
     RDKit          3D

 25 29  0  0  0  0  0  0  0  0999 V2000
    4.9294   -0.5617   -0.7791 C   0  0  0  0  0  0  0  0  0  0  0  0
    6.1000    0.0922   -0.0200 C   0  0  0  0  0  0  0  0  0  0  0  0
    5.6978    0.7130    1.2107 O   0  0  0  0  0  0  0  0  0  0  0  0
    4.3680    1.2422    1.1171 C   0  0  0  0  0  0  0  0  0  0  0  0
    3.3425    0.1001    0.9198 C   0  0  0  0  0  0  0  0  0  0  0  0
    3.8867   -1.0526    0.1394 N   0  0  0  0  0  0  0  0  0  0  0  0
    2.0587    0.6324    0.2572 C   0  0  0  0  0  0  0  0  0  0  0  0
    1.8688    1.8497    0.1507 O   0  0  0  0  0  0  0  0  0  0  0  0
    1.0281   -0.3968   -0.2491 C   0  0  2  0  0  0  0  0  0  0  0  0
   -0.1601    0.2788   -0.8911 C   0  0  0  0  0  0  0  0  0  0  0  0
   -1.3978    0.1846   -0.3747 C   0  0  0  0  0  0  0  0  0  0  0  0
   -2.5843    0.6647   -1.1142 C   0  0  0  0  0  0  0  0  0  0  0  0
   -2.6996    1.7434   -1.9926 C   0  0  0  0  0  0  0  0  0  0  0  0
   -3.9244    2.0116   -2.6217 C   0  0  0  0  0  0  0  0  0  0  0  0
   -5.0648    1.2166   -2.4033 C   0  0  0  0  0  0  0  0  0  0  0  0
   -4.9279    0.1406   -1.5224 C   0  0  0  0  0  0  0  0  0  0  0  0
   -5.8087   -0.8253   -1.0839 N   0  0  0  0  0  0  0  0  0  0  0  0
   -5.1860   -1.6814   -0.1972 C   0  0  0  0  0  0  0  0  0  0  0  0
   -3.8834   -1.2622   -0.0615 C   0  0  0  0  0  0  0  0  0  0  0  0
   -3.7244   -0.1266   -0.8952 C   0  0  0  0  0  0  0  0  0  0  0  0
   -2.7167   -1.7418    0.7464 C   0  0  0  0  0  0  0  0  0  0  0  0
   -1.7075   -0.5515    0.9520 C   0  0  1  0  0  0  0  0  0  0  0  0
   -0.5144   -0.9961    1.7177 N   0  0  0  0  0  0  0  0  0  0  0  0
   -0.0934    0.0333    2.6683 C   0  0  0  0  0  0  0  0  0  0  0  0
    0.5833   -1.4141    0.8260 C   0  0  0  0  0  0  0  0  0  0  0  0
  1  2  1  0
  2  3  1  0
  3  4  1  0
  4  5  1  0
  5  6  1  0
  5  7  1  0
  7  8  2  0
  9  7  1  1
  9 10  1  0
 10 11  2  0
 11 12  1  0
 12 13  2  0
 13 14  1  0
 14 15  2  0
 15 16  1  0
 16 17  1  0
 17 18  1  0
 18 19  2  0
 19 20  1  0
 19 21  1  0
 22 21  1  6
 22 23  1  0
 23 24  1  0
 23 25  1  0
  6  1  1  0
 25  9  1  0
 22 11  1  0
 20 12  1  0
 20 16  2  0
M  END
$$$$
