
     RDKit          3D

 26 29  0  0  0  0  0  0  0  0999 V2000
    3.1564    1.0603    2.6024 C   0  0  0  0  0  0  0  0  0  0  0  0
    4.1679    1.0538    1.4668 C   0  0  0  0  0  0  0  0  0  0  0  0
    3.5467    0.7736    0.0941 C   0  0  0  0  0  0  0  0  0  0  0  0
    2.9909   -0.5797   -0.0283 N   0  0  0  0  0  0  0  0  0  0  0  0
    3.9507   -1.6711   -0.2287 C   0  0  0  0  0  0  0  0  0  0  0  0
    4.1759   -1.9567   -1.7145 C   0  0  0  0  0  0  0  0  0  0  0  0
    5.1698   -3.0882   -1.9185 C   0  0  0  0  0  0  0  0  0  0  0  0
    1.6335   -0.9136   -0.0307 C   0  0  0  0  0  0  0  0  0  0  0  0
    1.2721   -2.0900   -0.1383 O   0  0  0  0  0  0  0  0  0  0  0  0
    0.5953    0.2186    0.0645 C   0  0  2  0  0  0  0  0  0  0  0  0
   -0.6861   -0.2679    0.7039 C   0  0  0  0  0  0  0  0  0  0  0  0
   -1.8988    0.0297    0.1955 C   0  0  0  0  0  0  0  0  0  0  0  0
   -3.1368   -0.5656    0.7580 C   0  0  0  0  0  0  0  0  0  0  0  0
   -3.2613   -1.6859    1.5903 C   0  0  0  0  0  0  0  0  0  0  0  0
   -4.5230   -2.1413    1.9996 C   0  0  0  0  0  0  0  0  0  0  0  0
   -5.7059   -1.5070    1.5910 C   0  0  0  0  0  0  0  0  0  0  0  0
   -5.5689   -0.3967    0.7556 C   0  0  0  0  0  0  0  0  0  0  0  0
   -6.4964    0.4386    0.1708 N   0  0  0  0  0  0  0  0  0  0  0  0
   -5.8644    1.4118   -0.5724 C   0  0  0  0  0  0  0  0  0  0  0  0
   -4.5103    1.1954   -0.4683 C   0  0  0  0  0  0  0  0  0  0  0  0
   -4.3246    0.0628    0.3548 C   0  0  0  0  0  0  0  0  0  0  0  0
   -3.3206    1.9158   -0.9983 C   0  0  0  0  0  0  0  0  0  0  0  0
   -2.0644    0.9652   -1.0444 C   0  0  1  0  0  0  0  0  0  0  0  0
   -0.8140    1.6855   -1.4421 N   0  0  0  0  0  0  0  0  0  0  0  0
   -0.5678    2.9109   -0.6833 C   0  0  0  0  0  0  0  0  0  0  0  0
    0.3354    0.7610   -1.3548 C   0  0  0  0  0  0  0  0  0  0  0  0
  1  2  1  0
  2  3  1  0
  3  4  1  0
  4  5  1  0
  5  6  1  0
  6  7  1  0
  4  8  1  0
  8  9  2  0
 10  8  1  6
 10 11  1  0
 11 12  2  0
 12 13  1  0
 13 14  2  0
 14 15  1  0
 15 16  2  0
 16 17  1  0
 17 18  1  0
 18 19  1  0
 19 20  2  0
 20 21  1  0
 20 22  1  0
 23 22  1  1
 23 24  1  0
 24 25  1  0
 24 26  1  0
 26 10  1  0
 23 12  1  0
 21 13  1  0
 21 17  2  0
M  END
$$$$
