
     RDKit          3D

 23 27  0  0  0  0  0  0  0  0999 V2000
    5.3079    1.4993   -0.3878 C   0  0  0  0  0  0  0  0  0  0  0  0
    5.4461    0.8462    0.9933 C   0  0  0  0  0  0  0  0  0  0  0  0
    4.7395   -0.3447    0.4626 N   0  0  0  0  0  0  0  0  0  0  0  0
    4.1262    0.5269   -0.5910 C   0  0  0  0  0  0  0  0  0  0  0  0
    2.6819    1.0366   -0.2077 C   0  0  0  0  0  0  0  0  0  0  0  0
    2.4791    2.0240    0.5131 O   0  0  0  0  0  0  0  0  0  0  0  0
    1.5174    0.2399   -0.8233 C   0  0  2  0  0  0  0  0  0  0  0  0
    0.2108    0.9797   -0.7131 C   0  0  0  0  0  0  0  0  0  0  0  0
   -0.9312    0.3477   -0.3846 C   0  0  0  0  0  0  0  0  0  0  0  0
   -2.1964    1.1005   -0.2199 C   0  0  0  0  0  0  0  0  0  0  0  0
   -2.3733    2.4526    0.0957 C   0  0  0  0  0  0  0  0  0  0  0  0
   -3.6610    2.9939    0.2218 C   0  0  0  0  0  0  0  0  0  0  0  0
   -4.8141    2.2123    0.0425 C   0  0  0  0  0  0  0  0  0  0  0  0
   -4.6199    0.8640   -0.2652 C   0  0  0  0  0  0  0  0  0  0  0  0
   -5.5004   -0.1705   -0.4985 N   0  0  0  0  0  0  0  0  0  0  0  0
   -4.8125   -1.3355   -0.7659 C   0  0  0  0  0  0  0  0  0  0  0  0
   -3.4693   -1.0457   -0.7038 C   0  0  0  0  0  0  0  0  0  0  0  0
   -3.3507    0.3255   -0.3922 C   0  0  0  0  0  0  0  0  0  0  0  0
   -2.2358   -1.8576   -0.9044 C   0  0  0  0  0  0  0  0  0  0  0  0
   -0.9995   -1.1978   -0.1784 C   0  0  1  0  0  0  0  0  0  0  0  0
    0.2605   -1.8985   -0.5822 N   0  0  0  0  0  0  0  0  0  0  0  0
    0.3234   -3.2544   -0.0276 C   0  0  0  0  0  0  0  0  0  0  0  0
    1.4455   -1.1361   -0.1430 C   0  0  0  0  0  0  0  0  0  0  0  0
  1  2  1  0
  2  3  1  0
  3  4  1  0
  4  5  1  0
  5  6  2  0
  7  5  1  1
  7  8  1  0
  8  9  2  0
  9 10  1  0
 10 11  2  0
 11 12  1  0
 12 13  2  0
 13 14  1  0
 14 15  1  0
 15 16  1  0
 16 17  2  0
 17 18  1  0
 17 19  1  0
 20 19  1  6
 20 21  1  0
 21 22  1  0
 21 23  1  0
  4  1  1  0
 23  7  1  0
 20  9  1  0
 18 10  1  0
 18 14  2  0
M  END
$$$$
