
     RDKit          3D

 21 24  0  0  0  0  0  0  0  0999 V2000
   -4.6488    1.1945   -0.4452 C   0  0  0  0  0  0  0  0  0  0  0  0
   -3.5466    0.3244   -0.1377 N   0  0  0  0  0  0  0  0  0  0  0  0
   -3.2732   -0.0783    1.1501 C   0  0  0  0  0  0  0  0  0  0  0  0
   -3.9944    0.2005    2.1068 O   0  0  0  0  0  0  0  0  0  0  0  0
   -1.9574   -0.8449    1.3286 C   0  0  2  0  0  0  0  0  0  0  0  0
   -0.8324    0.1447    1.4845 C   0  0  0  0  0  0  0  0  0  0  0  0
    0.1249    0.2734    0.5483 C   0  0  0  0  0  0  0  0  0  0  0  0
    1.3225    1.1063    0.7826 C   0  0  0  0  0  0  0  0  0  0  0  0
    1.4489    2.2794    1.5290 C   0  0  0  0  0  0  0  0  0  0  0  0
    2.6983    2.9047    1.6537 C   0  0  0  0  0  0  0  0  0  0  0  0
    3.8563    2.3826    1.0492 C   0  0  0  0  0  0  0  0  0  0  0  0
    3.7089    1.2063    0.3097 C   0  0  0  0  0  0  0  0  0  0  0  0
    4.6031    0.4299   -0.3962 N   0  0  0  0  0  0  0  0  0  0  0  0
    3.9592   -0.6506   -0.9660 C   0  0  0  0  0  0  0  0  0  0  0  0
    2.6300   -0.5701   -0.6220 C   0  0  0  0  0  0  0  0  0  0  0  0
    2.4786    0.5879    0.1785 C   0  0  0  0  0  0  0  0  0  0  0  0
    1.4293   -1.4087   -0.9298 C   0  0  0  0  0  0  0  0  0  0  0  0
    0.1214   -0.5363   -0.7793 C   0  0  1  0  0  0  0  0  0  0  0  0
   -1.1743   -1.2313   -1.0147 N   0  0  0  0  0  0  0  0  0  0  0  0
   -1.1432   -2.1653   -2.1344 C   0  0  0  0  0  0  0  0  0  0  0  0
   -1.6929   -1.8723    0.2080 C   0  0  0  0  0  0  0  0  0  0  0  0
  1  2  1  0
  2  3  1  0
  3  4  2  0
  5  3  1  6
  5  6  1  0
  6  7  2  0
  7  8  1  0
  8  9  2  0
  9 10  1  0
 10 11  2  0
 11 12  1  0
 12 13  1  0
 13 14  1  0
 14 15  2  0
 15 16  1  0
 15 17  1  0
 18 17  1  1
 18 19  1  0
 19 20  1  0
 19 21  1  0
 21  5  1  0
 18  7  1  0
 16  8  1  0
 16 12  2  0
M  END
$$$$
