
     RDKit          3D

 20 23  0  0  0  0  0  0  0  0999 V2000
    3.2171    2.5131    0.4516 N   0  0  0  0  0  0  0  0  0  0  0  0
    3.4939    1.7069   -0.6163 C   0  0  0  0  0  0  0  0  0  0  0  0
    4.4176    1.9841   -1.3760 O   0  0  0  0  0  0  0  0  0  0  0  0
    2.6147    0.4683   -0.7935 C   0  0  2  0  0  0  0  0  0  0  0  0
    1.1682    0.8792   -0.9436 C   0  0  0  0  0  0  0  0  0  0  0  0
    0.1799    0.2773   -0.2521 C   0  0  0  0  0  0  0  0  0  0  0  0
   -1.2134    0.7883   -0.2975 C   0  0  0  0  0  0  0  0  0  0  0  0
   -1.6689    2.0311   -0.7592 C   0  0  0  0  0  0  0  0  0  0  0  0
   -3.0262    2.3756   -0.6798 C   0  0  0  0  0  0  0  0  0  0  0  0
   -3.9788    1.5035   -0.1327 C   0  0  0  0  0  0  0  0  0  0  0  0
   -3.5134    0.2694    0.3241 C   0  0  0  0  0  0  0  0  0  0  0  0
   -4.1580   -0.8014    0.9058 N   0  0  0  0  0  0  0  0  0  0  0  0
   -3.2622   -1.8144    1.1692 C   0  0  0  0  0  0  0  0  0  0  0  0
   -2.0224   -1.3862    0.7557 C   0  0  0  0  0  0  0  0  0  0  0  0
   -2.1752   -0.0808    0.2392 C   0  0  0  0  0  0  0  0  0  0  0  0
   -0.6836   -2.0341    0.7212 C   0  0  0  0  0  0  0  0  0  0  0  0
    0.4602   -0.9524    0.6723 C   0  0  1  0  0  0  0  0  0  0  0  0
    1.8118   -1.5636    0.4845 N   0  0  0  0  0  0  0  0  0  0  0  0
    1.8967   -2.4795   -0.6543 C   0  0  0  0  0  0  0  0  0  0  0  0
    2.8322   -0.5007    0.3840 C   0  0  0  0  0  0  0  0  0  0  0  0
  1  2  1  0
  2  3  2  0
  4  2  1  1
  4  5  1  0
  5  6  2  0
  6  7  1  0
  7  8  2  0
  8  9  1  0
  9 10  2  0
 10 11  1  0
 11 12  1  0
 12 13  1  0
 13 14  2  0
 14 15  1  0
 14 16  1  0
 17 16  1  6
 17 18  1  0
 18 19  1  0
 18 20  1  0
 20  4  1  0
 17  6  1  0
 15  7  1  0
 15 11  2  0
M  END
$$$$
