
     RDKit          3D

 23 26  0  0  0  0  0  0  0  0999 V2000
    3.9334    2.3058    1.2714 C   0  0  0  0  0  0  0  0  0  0  0  0
    4.1525    0.9307    0.6494 C   0  0  0  0  0  0  0  0  0  0  0  0
    4.8449   -0.0068    1.6357 C   0  0  0  0  0  0  0  0  0  0  0  0
    2.8807    0.3690    0.2208 N   0  0  0  0  0  0  0  0  0  0  0  0
    2.7935   -0.5692   -0.7886 C   0  0  0  0  0  0  0  0  0  0  0  0
    3.7653   -0.9375   -1.4447 O   0  0  0  0  0  0  0  0  0  0  0  0
    1.3989   -1.1634   -1.0178 C   0  0  2  0  0  0  0  0  0  0  0  0
    0.3551   -0.0744   -1.1150 C   0  0  0  0  0  0  0  0  0  0  0  0
   -0.8005   -0.1283   -0.4235 C   0  0  0  0  0  0  0  0  0  0  0  0
   -1.7418    1.0196   -0.4074 C   0  0  0  0  0  0  0  0  0  0  0  0
   -1.5026    2.3450   -0.7963 C   0  0  0  0  0  0  0  0  0  0  0  0
   -2.4978    3.3244   -0.6648 C   0  0  0  0  0  0  0  0  0  0  0  0
   -3.7623    3.0266   -0.1356 C   0  0  0  0  0  0  0  0  0  0  0  0
   -3.9877    1.7040    0.2498 C   0  0  0  0  0  0  0  0  0  0  0  0
   -5.0869    1.0773    0.7970 N   0  0  0  0  0  0  0  0  0  0  0  0
   -4.8280   -0.2622    0.9900 C   0  0  0  0  0  0  0  0  0  0  0  0
   -3.5417   -0.4989    0.5650 C   0  0  0  0  0  0  0  0  0  0  0  0
   -3.0118    0.7297    0.1132 C   0  0  0  0  0  0  0  0  0  0  0  0
   -2.7146   -1.7318    0.4672 C   0  0  0  0  0  0  0  0  0  0  0  0
   -1.1806   -1.3750    0.4392 C   0  0  1  0  0  0  0  0  0  0  0  0
   -0.3219   -2.5736    0.1927 N   0  0  0  0  0  0  0  0  0  0  0  0
   -0.7114   -3.3509   -0.9852 C   0  0  0  0  0  0  0  0  0  0  0  0
    1.0953   -2.1680    0.1100 C   0  0  0  0  0  0  0  0  0  0  0  0
  1  2  1  0
  2  3  1  0
  2  4  1  0
  4  5  1  0
  5  6  2  0
  7  5  1  1
  7  8  1  0
  8  9  2  0
  9 10  1  0
 10 11  2  0
 11 12  1  0
 12 13  2  0
 13 14  1  0
 14 15  1  0
 15 16  1  0
 16 17  2  0
 17 18  1  0
 17 19  1  0
 20 19  1  6
 20 21  1  0
 21 22  1  0
 21 23  1  0
 23  7  1  0
 20  9  1  0
 18 10  1  0
 18 14  2  0
M  END
$$$$
