
     RDKit          3D

 23 27  0  0  0  0  0  0  0  0999 V2000
    5.7738    1.4185   -0.1989 C   0  0  0  0  0  0  0  0  0  0  0  0
    5.0445    1.6942    1.0829 C   0  0  0  0  0  0  0  0  0  0  0  0
    4.9211    0.3481    0.4253 C   0  0  0  0  0  0  0  0  0  0  0  0
    3.6914   -0.0488   -0.1798 N   0  0  0  0  0  0  0  0  0  0  0  0
    2.7701   -0.8567    0.4704 C   0  0  0  0  0  0  0  0  0  0  0  0
    2.9484   -1.3015    1.6014 O   0  0  0  0  0  0  0  0  0  0  0  0
    1.5116   -1.1265   -0.3616 C   0  0  2  0  0  0  0  0  0  0  0  0
    0.6324    0.0993   -0.3814 C   0  0  0  0  0  0  0  0  0  0  0  0
   -0.7080   -0.0006   -0.2996 C   0  0  0  0  0  0  0  0  0  0  0  0
   -1.5624    1.2096   -0.2753 C   0  0  0  0  0  0  0  0  0  0  0  0
   -1.2310    2.5056    0.1364 C   0  0  0  0  0  0  0  0  0  0  0  0
   -2.1844    3.5336    0.0955 C   0  0  0  0  0  0  0  0  0  0  0  0
   -3.4967    3.3096   -0.3521 C   0  0  0  0  0  0  0  0  0  0  0  0
   -3.8126    2.0097   -0.7530 C   0  0  0  0  0  0  0  0  0  0  0  0
   -4.9746    1.4433   -1.2316 N   0  0  0  0  0  0  0  0  0  0  0  0
   -4.7834    0.1025   -1.4911 C   0  0  0  0  0  0  0  0  0  0  0  0
   -3.4790   -0.1981   -1.1745 C   0  0  0  0  0  0  0  0  0  0  0  0
   -2.8747    0.9918   -0.7154 C   0  0  0  0  0  0  0  0  0  0  0  0
   -2.6719   -1.4494   -1.2401 C   0  0  0  0  0  0  0  0  0  0  0  0
   -1.4429   -1.3797   -0.2536 C   0  0  1  0  0  0  0  0  0  0  0  0
   -0.5281   -2.5386   -0.4983 N   0  0  0  0  0  0  0  0  0  0  0  0
   -1.1286   -3.8016   -0.0582 C   0  0  0  0  0  0  0  0  0  0  0  0
    0.7556   -2.3391    0.2068 C   0  0  0  0  0  0  0  0  0  0  0  0
  1  2  1  0
  2  3  1  0
  3  4  1  0
  4  5  1  0
  5  6  2  0
  7  5  1  1
  7  8  1  0
  8  9  2  0
  9 10  1  0
 10 11  2  0
 11 12  1  0
 12 13  2  0
 13 14  1  0
 14 15  1  0
 15 16  1  0
 16 17  2  0
 17 18  1  0
 17 19  1  0
 20 19  1  6
 20 21  1  0
 21 22  1  0
 21 23  1  0
  3  1  1  0
 23  7  1  0
 20  9  1  0
 18 10  1  0
 18 14  2  0
M  END
$$$$
