
     RDKit          3D

 23 26  0  0  0  0  0  0  0  0999 V2000
    6.0494    1.0518    1.7286 C   0  0  0  0  0  0  0  0  0  0  0  0
    5.8532    0.7360    0.4413 C   0  0  0  0  0  0  0  0  0  0  0  0
    5.1907   -0.5235   -0.0207 C   0  0  0  0  0  0  0  0  0  0  0  0
    3.8820   -0.1716   -0.5129 N   0  0  0  0  0  0  0  0  0  0  0  0
    2.7340   -0.4395    0.2102 C   0  0  0  0  0  0  0  0  0  0  0  0
    2.7447   -1.0552    1.2725 O   0  0  0  0  0  0  0  0  0  0  0  0
    1.4552    0.1053   -0.4468 C   0  0  2  0  0  0  0  0  0  0  0  0
    0.2966    0.1200    0.5203 C   0  0  0  0  0  0  0  0  0  0  0  0
   -0.9293   -0.3251    0.1783 C   0  0  0  0  0  0  0  0  0  0  0  0
   -2.0159   -0.4366    1.1836 C   0  0  0  0  0  0  0  0  0  0  0  0
   -1.9099   -0.4329    2.5809 C   0  0  0  0  0  0  0  0  0  0  0  0
   -3.0446   -0.5942    3.3891 C   0  0  0  0  0  0  0  0  0  0  0  0
   -4.3233   -0.7736    2.8403 C   0  0  0  0  0  0  0  0  0  0  0  0
   -4.4148   -0.7828    1.4472 C   0  0  0  0  0  0  0  0  0  0  0  0
   -5.4856   -0.9414    0.5937 N   0  0  0  0  0  0  0  0  0  0  0  0
   -5.0693   -0.8642   -0.7176 C   0  0  0  0  0  0  0  0  0  0  0  0
   -3.7095   -0.6586   -0.7069 C   0  0  0  0  0  0  0  0  0  0  0  0
   -3.2985   -0.6151    0.6436 C   0  0  0  0  0  0  0  0  0  0  0  0
   -2.7033   -0.4514   -1.7835 C   0  0  0  0  0  0  0  0  0  0  0  0
   -1.2546   -0.8037   -1.2724 C   0  0  1  0  0  0  0  0  0  0  0  0
   -0.1964   -0.4723   -2.2783 N   0  0  0  0  0  0  0  0  0  0  0  0
   -0.2854    0.8900   -2.8033 C   0  0  0  0  0  0  0  0  0  0  0  0
    1.1356   -0.7365   -1.6977 C   0  0  0  0  0  0  0  0  0  0  0  0
  1  2  2  0
  2  3  1  0
  3  4  1  0
  4  5  1  0
  5  6  2  0
  7  5  1  1
  7  8  1  0
  8  9  2  0
  9 10  1  0
 10 11  2  0
 11 12  1  0
 12 13  2  0
 13 14  1  0
 14 15  1  0
 15 16  1  0
 16 17  2  0
 17 18  1  0
 17 19  1  0
 20 19  1  6
 20 21  1  0
 21 22  1  0
 21 23  1  0
 23  7  1  0
 20  9  1  0
 18 10  1  0
 18 14  2  0
M  END
$$$$
