
     RDKit          3D

 23 26  0  0  0  0  0  0  0  0999 V2000
    3.1668    5.2563    2.5676 C   0  0  0  0  0  0  0  0  0  0  0  0
    3.2509    4.0582    2.5482 C   0  0  0  0  0  0  0  0  0  0  0  0
    3.3530    2.5967    2.5238 C   0  0  0  0  0  0  0  0  0  0  0  0
    2.7407    2.0842    1.3236 N   0  0  0  0  0  0  0  0  0  0  0  0
    2.8130    0.7379    1.0238 C   0  0  0  0  0  0  0  0  0  0  0  0
    3.4986   -0.0319    1.6915 O   0  0  0  0  0  0  0  0  0  0  0  0
    2.0368    0.3235   -0.2400 C   0  0  2  0  0  0  0  0  0  0  0  0
    0.5766    0.7043   -0.1774 C   0  0  0  0  0  0  0  0  0  0  0  0
   -0.4022   -0.2168   -0.2103 C   0  0  0  0  0  0  0  0  0  0  0  0
   -1.8192    0.1708   -0.3836 C   0  0  0  0  0  0  0  0  0  0  0  0
   -2.4884    1.3041    0.0825 C   0  0  0  0  0  0  0  0  0  0  0  0
   -3.8432    1.4989   -0.2251 C   0  0  0  0  0  0  0  0  0  0  0  0
   -4.5699    0.5816   -1.0062 C   0  0  0  0  0  0  0  0  0  0  0  0
   -3.8819   -0.5450   -1.4642 C   0  0  0  0  0  0  0  0  0  0  0  0
   -4.2639   -1.6233   -2.2341 N   0  0  0  0  0  0  0  0  0  0  0  0
   -3.2041   -2.4902   -2.4116 C   0  0  0  0  0  0  0  0  0  0  0  0
   -2.1217   -1.9638   -1.7465 C   0  0  0  0  0  0  0  0  0  0  0  0
   -2.5474   -0.7455   -1.1607 C   0  0  0  0  0  0  0  0  0  0  0  0
   -0.7089   -2.4171   -1.5410 C   0  0  0  0  0  0  0  0  0  0  0  0
   -0.1339   -1.7413   -0.2407 C   0  0  1  0  0  0  0  0  0  0  0  0
    1.2769   -2.1375   -0.0282 N   0  0  0  0  0  0  0  0  0  0  0  0
    1.5470   -2.3755    1.3913 C   0  0  0  0  0  0  0  0  0  0  0  0
    2.2304   -1.1692   -0.6049 C   0  0  0  0  0  0  0  0  0  0  0  0
  1  2  3  0
  2  3  1  0
  3  4  1  0
  4  5  1  0
  5  6  2  0
  7  5  1  1
  7  8  1  0
  8  9  2  0
  9 10  1  0
 10 11  2  0
 11 12  1  0
 12 13  2  0
 13 14  1  0
 14 15  1  0
 15 16  1  0
 16 17  2  0
 17 18  1  0
 17 19  1  0
 20 19  1  6
 20 21  1  0
 21 22  1  0
 21 23  1  0
 23  7  1  0
 20  9  1  0
 18 10  1  0
 18 14  2  0
M  END
$$$$
