
     RDKit          3D

 26 29  0  0  0  0  0  0  0  0999 V2000
    4.8954    2.8730    0.7895 C   0  0  0  0  0  0  0  0  0  0  0  0
    4.3109    2.3678   -0.3052 C   0  0  0  0  0  0  0  0  0  0  0  0
    4.3321    0.9185   -0.6993 C   0  0  0  0  0  0  0  0  0  0  0  0
    2.9680    0.3878   -0.6463 N   0  0  0  0  0  0  0  0  0  0  0  0
    2.4990   -0.0605    0.6675 C   0  0  0  0  0  0  0  0  0  0  0  0
    3.0874   -1.4047    0.9973 C   0  0  0  0  0  0  0  0  0  0  0  0
    2.3810   -2.4512    1.4481 C   0  0  0  0  0  0  0  0  0  0  0  0
    2.1944    0.5424   -1.7949 C   0  0  0  0  0  0  0  0  0  0  0  0
    2.6926    1.0254   -2.8226 O   0  0  0  0  0  0  0  0  0  0  0  0
    0.7094    0.1378   -1.8544 C   0  0  2  0  0  0  0  0  0  0  0  0
   -0.1543    0.9154   -0.9006 C   0  0  0  0  0  0  0  0  0  0  0  0
   -1.1679    0.3237   -0.2405 C   0  0  0  0  0  0  0  0  0  0  0  0
   -1.9558    1.0730    0.7662 C   0  0  0  0  0  0  0  0  0  0  0  0
   -1.5909    2.2188    1.4840 C   0  0  0  0  0  0  0  0  0  0  0  0
   -2.4668    2.7849    2.4219 C   0  0  0  0  0  0  0  0  0  0  0  0
   -3.7309    2.2322    2.6818 C   0  0  0  0  0  0  0  0  0  0  0  0
   -4.0785    1.0882    1.9604 C   0  0  0  0  0  0  0  0  0  0  0  0
   -5.2111    0.3027    1.9586 N   0  0  0  0  0  0  0  0  0  0  0  0
   -5.0777   -0.7287    1.0535 C   0  0  0  0  0  0  0  0  0  0  0  0
   -3.8414   -0.6035    0.4637 C   0  0  0  0  0  0  0  0  0  0  0  0
   -3.2182    0.5274    1.0314 C   0  0  0  0  0  0  0  0  0  0  0  0
   -3.1293   -1.3782   -0.5902 C   0  0  0  0  0  0  0  0  0  0  0  0
   -1.5683   -1.1673   -0.4953 C   0  0  1  0  0  0  0  0  0  0  0  0
   -0.9034   -1.7561   -1.6990 N   0  0  0  0  0  0  0  0  0  0  0  0
   -1.0237   -3.2158   -1.7380 C   0  0  0  0  0  0  0  0  0  0  0  0
    0.5229   -1.3805   -1.7650 C   0  0  0  0  0  0  0  0  0  0  0  0
  1  2  2  0
  2  3  1  0
  3  4  1  0
  4  5  1  0
  5  6  1  0
  6  7  2  0
  4  8  1  0
  8  9  2  0
 10  8  1  1
 10 11  1  0
 11 12  2  0
 12 13  1  0
 13 14  2  0
 14 15  1  0
 15 16  2  0
 16 17  1  0
 17 18  1  0
 18 19  1  0
 19 20  2  0
 20 21  1  0
 20 22  1  0
 23 22  1  6
 23 24  1  0
 24 25  1  0
 24 26  1  0
 26 10  1  0
 23 12  1  0
 21 13  1  0
 21 17  2  0
M  END
$$$$
