
     RDKit          3D

 27 31  0  0  0  0  0  0  0  0999 V2000
    5.8079   -1.1934   -0.2298 C   0  0  0  0  0  0  0  0  0  0  0  0
    6.4436   -1.6415    0.9296 C   0  0  0  0  0  0  0  0  0  0  0  0
    6.1961   -1.0141    2.1495 C   0  0  0  0  0  0  0  0  0  0  0  0
    5.3121    0.0612    2.2130 C   0  0  0  0  0  0  0  0  0  0  0  0
    4.6766    0.5115    1.0554 C   0  0  0  0  0  0  0  0  0  0  0  0
    4.9226   -0.1075   -0.1790 C   0  0  0  0  0  0  0  0  0  0  0  0
    4.2080    0.3655   -1.4183 C   0  0  0  0  0  0  0  0  0  0  0  0
    2.8695   -0.1801   -1.4653 N   0  0  0  0  0  0  0  0  0  0  0  0
    1.7696    0.5638   -1.0833 C   0  0  0  0  0  0  0  0  0  0  0  0
    1.8383    1.7611   -0.8191 O   0  0  0  0  0  0  0  0  0  0  0  0
    0.4680   -0.2496   -1.0263 C   0  0  2  0  0  0  0  0  0  0  0  0
   -0.7461    0.6460   -1.0567 C   0  0  0  0  0  0  0  0  0  0  0  0
   -1.7856    0.4728   -0.2158 C   0  0  0  0  0  0  0  0  0  0  0  0
   -2.9039    1.4477   -0.1629 C   0  0  0  0  0  0  0  0  0  0  0  0
   -2.9384    2.7575   -0.6600 C   0  0  0  0  0  0  0  0  0  0  0  0
   -4.0719    3.5644   -0.4838 C   0  0  0  0  0  0  0  0  0  0  0  0
   -5.2077    3.1041    0.1991 C   0  0  0  0  0  0  0  0  0  0  0  0
   -5.1583    1.8003    0.6960 C   0  0  0  0  0  0  0  0  0  0  0  0
   -6.0691    1.0485    1.4068 N   0  0  0  0  0  0  0  0  0  0  0  0
   -5.5590   -0.2055    1.6642 C   0  0  0  0  0  0  0  0  0  0  0  0
   -4.2990   -0.2584    1.1155 C   0  0  0  0  0  0  0  0  0  0  0  0
   -4.0446    0.9954    0.5173 C   0  0  0  0  0  0  0  0  0  0  0  0
   -3.2746   -1.3338    1.0215 C   0  0  0  0  0  0  0  0  0  0  0  0
   -1.8406   -0.7233    0.7874 C   0  0  1  0  0  0  0  0  0  0  0  0
   -0.8037   -1.7750    0.5441 N   0  0  0  0  0  0  0  0  0  0  0  0
   -1.1722   -2.7428   -0.4886 C   0  0  0  0  0  0  0  0  0  0  0  0
    0.4898   -1.1313    0.2381 C   0  0  0  0  0  0  0  0  0  0  0  0
  1  2  2  0
  2  3  1  0
  3  4  2  0
  4  5  1  0
  5  6  2  0
  6  7  1  0
  7  8  1  0
  8  9  1  0
  9 10  2  0
 11  9  1  1
 11 12  1  0
 12 13  2  0
 13 14  1  0
 14 15  2  0
 15 16  1  0
 16 17  2  0
 17 18  1  0
 18 19  1  0
 19 20  1  0
 20 21  2  0
 21 22  1  0
 21 23  1  0
 24 23  1  6
 24 25  1  0
 25 26  1  0
 25 27  1  0
  6  1  1  0
 27 11  1  0
 24 13  1  0
 22 14  1  0
 22 18  2  0
M  END
$$$$
