
     RDKit          3D

 25 29  0  0  0  0  0  0  0  0999 V2000
   -3.3982    1.5089   -0.0877 C   0  0  0  0  0  0  0  0  0  0  0  0
   -2.5848    0.2178   -0.2931 C   0  0  0  0  0  0  0  0  0  0  0  0
   -2.9418   -0.8072    0.6969 N   0  0  0  0  0  0  0  0  0  0  0  0
   -4.3409   -0.7849    1.1395 C   0  0  0  0  0  0  0  0  0  0  0  0
   -5.2689   -0.0469    0.1599 C   0  0  0  0  0  0  0  0  0  0  0  0
   -4.8579    1.3283   -0.1676 N   0  0  0  0  0  0  0  0  0  0  0  0
   -2.0882   -1.6982    1.3293 C   0  0  0  0  0  0  0  0  0  0  0  0
   -2.5103   -2.4141    2.2474 O   0  0  0  0  0  0  0  0  0  0  0  0
   -0.6089   -1.8264    0.9244 C   0  0  2  0  0  0  0  0  0  0  0  0
    0.1884   -0.5990    1.2693 C   0  0  0  0  0  0  0  0  0  0  0  0
    1.1519   -0.1416    0.4475 C   0  0  0  0  0  0  0  0  0  0  0  0
    1.8736    1.1162    0.7525 C   0  0  0  0  0  0  0  0  0  0  0  0
    1.4659    2.1821    1.5641 C   0  0  0  0  0  0  0  0  0  0  0  0
    2.2795    3.3136    1.7217 C   0  0  0  0  0  0  0  0  0  0  0  0
    3.5220    3.4273    1.0779 C   0  0  0  0  0  0  0  0  0  0  0  0
    3.9133    2.3572    0.2706 C   0  0  0  0  0  0  0  0  0  0  0  0
    5.0416    2.1340   -0.4890 N   0  0  0  0  0  0  0  0  0  0  0  0
    4.9657    0.9056   -1.1105 C   0  0  0  0  0  0  0  0  0  0  0  0
    3.7713    0.3302   -0.7441 C   0  0  0  0  0  0  0  0  0  0  0  0
    3.1146    1.2368    0.1141 C   0  0  0  0  0  0  0  0  0  0  0  0
    3.1284   -0.9762   -1.0571 C   0  0  0  0  0  0  0  0  0  0  0  0
    1.5652   -0.9036   -0.8555 C   0  0  1  0  0  0  0  0  0  0  0  0
    0.9766   -2.2765   -0.9427 N   0  0  0  0  0  0  0  0  0  0  0  0
    1.0979   -2.8455   -2.2873 C   0  0  0  0  0  0  0  0  0  0  0  0
   -0.4416   -2.2791   -0.5326 C   0  0  0  0  0  0  0  0  0  0  0  0
  1  2  1  0
  2  3  1  0
  3  4  1  0
  4  5  1  0
  5  6  1  0
  3  7  1  0
  7  8  2  0
  9  7  1  6
  9 10  1  0
 10 11  2  0
 11 12  1  0
 12 13  2  0
 13 14  1  0
 14 15  2  0
 15 16  1  0
 16 17  1  0
 17 18  1  0
 18 19  2  0
 19 20  1  0
 19 21  1  0
 22 21  1  1
 22 23  1  0
 23 24  1  0
 23 25  1  0
  6  1  1  0
 25  9  1  0
 22 11  1  0
 20 12  1  0
 20 16  2  0
M  END
$$$$
