
     RDKit          3D

 26 30  0  0  0  0  0  0  0  0999 V2000
    5.2734    1.8360    0.9115 C   0  0  0  0  0  0  0  0  0  0  0  0
    4.4427    0.6568    1.1406 N   0  0  0  0  0  0  0  0  0  0  0  0
    3.0156    0.9754    0.9305 C   0  0  0  0  0  0  0  0  0  0  0  0
    2.1632   -0.2568    0.5733 C   0  0  0  0  0  0  0  0  0  0  0  0
    2.6197   -0.8792   -0.6777 N   0  0  0  0  0  0  0  0  0  0  0  0
    4.0586   -0.7557   -0.9426 C   0  0  0  0  0  0  0  0  0  0  0  0
    4.8848   -0.4956    0.3299 C   0  0  0  0  0  0  0  0  0  0  0  0
    1.8341   -1.4454   -1.6681 C   0  0  0  0  0  0  0  0  0  0  0  0
    2.3448   -1.8023   -2.7385 O   0  0  0  0  0  0  0  0  0  0  0  0
    0.3182   -1.6418   -1.4879 C   0  0  2  0  0  0  0  0  0  0  0  0
   -0.4322   -0.3341   -1.4659 C   0  0  0  0  0  0  0  0  0  0  0  0
   -1.4422   -0.1145   -0.6000 C   0  0  0  0  0  0  0  0  0  0  0  0
   -2.0712    1.2243   -0.4750 C   0  0  0  0  0  0  0  0  0  0  0  0
   -1.6047    2.4526   -0.9638 C   0  0  0  0  0  0  0  0  0  0  0  0
   -2.3011    3.6422   -0.7050 C   0  0  0  0  0  0  0  0  0  0  0  0
   -3.4803    3.6574    0.0544 C   0  0  0  0  0  0  0  0  0  0  0  0
   -3.9345    2.4285    0.5362 C   0  0  0  0  0  0  0  0  0  0  0  0
   -5.0303    2.0852    1.2989 N   0  0  0  0  0  0  0  0  0  0  0  0
   -5.0627    0.7234    1.5051 C   0  0  0  0  0  0  0  0  0  0  0  0
   -3.9686    0.1841    0.8700 C   0  0  0  0  0  0  0  0  0  0  0  0
   -3.2564    1.2485    0.2751 C   0  0  0  0  0  0  0  0  0  0  0  0
   -3.4889   -1.2117    0.6827 C   0  0  0  0  0  0  0  0  0  0  0  0
   -1.9460   -1.2366    0.3667 C   0  0  1  0  0  0  0  0  0  0  0  0
   -1.4606   -2.6098    0.0245 N   0  0  0  0  0  0  0  0  0  0  0  0
   -2.2272   -3.2585   -1.0411 C   0  0  0  0  0  0  0  0  0  0  0  0
   -0.0211   -2.5702   -0.3095 C   0  0  0  0  0  0  0  0  0  0  0  0
  1  2  1  0
  2  3  1  0
  3  4  1  0
  4  5  1  0
  5  6  1  0
  6  7  1  0
  5  8  1  0
  8  9  2  0
 10  8  1  1
 10 11  1  0
 11 12  2  0
 12 13  1  0
 13 14  2  0
 14 15  1  0
 15 16  2  0
 16 17  1  0
 17 18  1  0
 18 19  1  0
 19 20  2  0
 20 21  1  0
 20 22  1  0
 23 22  1  6
 23 24  1  0
 24 25  1  0
 24 26  1  0
  7  2  1  0
 26 10  1  0
 23 12  1  0
 21 13  1  0
 21 17  2  0
M  END
$$$$
