
     RDKit          3D

 26 30  0  0  0  0  0  0  0  0999 V2000
   -2.4816   -0.1181   -0.9215 C   0  0  0  0  0  0  0  0  0  0  0  0
   -3.0980    1.2807   -0.9076 C   0  0  0  0  0  0  0  0  0  0  0  0
   -4.6082    1.2471   -1.1188 C   0  0  0  0  0  0  0  0  0  0  0  0
   -5.4252    1.0471    0.1558 C   0  0  0  0  0  0  0  0  0  0  0  0
   -4.9555    0.0769    1.1299 N   0  0  0  0  0  0  0  0  0  0  0  0
   -4.3164   -1.1205    0.6030 C   0  0  0  0  0  0  0  0  0  0  0  0
   -2.8110   -1.0074    0.2826 C   0  0  0  0  0  0  0  0  0  0  0  0
   -1.9763   -0.6001    1.5074 C   0  0  0  0  0  0  0  0  0  0  0  0
   -2.4691    0.1081    2.3959 O   0  0  0  0  0  0  0  0  0  0  0  0
   -0.4842   -0.9677    1.5902 C   0  0  2  0  0  0  0  0  0  0  0  0
    0.3378    0.2437    1.2369 C   0  0  0  0  0  0  0  0  0  0  0  0
    1.4939    0.1329    0.5563 C   0  0  0  0  0  0  0  0  0  0  0  0
    2.2608    1.3371    0.1609 C   0  0  0  0  0  0  0  0  0  0  0  0
    1.7975    2.6447   -0.0262 C   0  0  0  0  0  0  0  0  0  0  0  0
    2.6763    3.6643   -0.4202 C   0  0  0  0  0  0  0  0  0  0  0  0
    4.0411    3.4204   -0.6440 C   0  0  0  0  0  0  0  0  0  0  0  0
    4.4864    2.1103   -0.4558 C   0  0  0  0  0  0  0  0  0  0  0  0
    5.7287    1.5263   -0.5804 N   0  0  0  0  0  0  0  0  0  0  0  0
    5.6599    0.1828   -0.2774 C   0  0  0  0  0  0  0  0  0  0  0  0
    4.3540   -0.1011    0.0484 C   0  0  0  0  0  0  0  0  0  0  0  0
    3.6232    1.1007   -0.0650 C   0  0  0  0  0  0  0  0  0  0  0  0
    3.6533   -1.3440    0.4775 C   0  0  0  0  0  0  0  0  0  0  0  0
    2.1080   -1.2530    0.1742 C   0  0  1  0  0  0  0  0  0  0  0  0
    1.3906   -2.4029    0.8116 N   0  0  0  0  0  0  0  0  0  0  0  0
    1.7292   -3.6774    0.1728 C   0  0  0  0  0  0  0  0  0  0  0  0
   -0.0682   -2.1950    0.7648 C   0  0  0  0  0  0  0  0  0  0  0  0
  1  2  1  0
  2  3  1  0
  3  4  1  0
  4  5  1  0
  5  6  1  0
  6  7  1  0
  7  8  1  0
  8  9  2  0
 10  8  1  6
 10 11  1  0
 11 12  2  0
 12 13  1  0
 13 14  2  0
 14 15  1  0
 15 16  2  0
 16 17  1  0
 17 18  1  0
 18 19  1  0
 19 20  2  0
 20 21  1  0
 20 22  1  0
 23 22  1  1
 23 24  1  0
 24 25  1  0
 24 26  1  0
  7  1  1  0
 26 10  1  0
 23 12  1  0
 21 13  1  0
 21 17  2  0
M  END
$$$$
