
     RDKit          3D

 25 29  0  0  0  0  0  0  0  0999 V2000
    4.2273    0.9525   -0.4694 C   0  0  0  0  0  0  0  0  0  0  0  0
    3.9242    1.1368    1.0147 C   0  0  0  0  0  0  0  0  0  0  0  0
    4.0449   -0.2513    1.6441 C   0  0  0  0  0  0  0  0  0  0  0  0
    4.3201   -1.2211    0.4953 C   0  0  0  0  0  0  0  0  0  0  0  0
    3.8399   -0.4963   -0.7582 C   0  0  0  0  0  0  0  0  0  0  0  0
    2.4045   -0.6435   -0.9361 N   0  0  0  0  0  0  0  0  0  0  0  0
    1.7921   -0.3403   -2.1371 C   0  0  0  0  0  0  0  0  0  0  0  0
    2.4194   -0.0561   -3.1549 O   0  0  0  0  0  0  0  0  0  0  0  0
    0.2606   -0.3842   -2.1188 C   0  0  2  0  0  0  0  0  0  0  0  0
   -0.2639    0.5711   -1.0709 C   0  0  0  0  0  0  0  0  0  0  0  0
   -1.1995    0.2017   -0.1742 C   0  0  0  0  0  0  0  0  0  0  0  0
   -1.5805    1.0924    0.9504 C   0  0  0  0  0  0  0  0  0  0  0  0
   -0.9019    2.2195    1.4344 C   0  0  0  0  0  0  0  0  0  0  0  0
   -1.3776    2.9209    2.5517 C   0  0  0  0  0  0  0  0  0  0  0  0
   -2.5379    2.5251    3.2336 C   0  0  0  0  0  0  0  0  0  0  0  0
   -3.2033    1.4000    2.7434 C   0  0  0  0  0  0  0  0  0  0  0  0
   -4.3440    0.7482    3.1610 N   0  0  0  0  0  0  0  0  0  0  0  0
   -4.6153   -0.3199    2.3339 C   0  0  0  0  0  0  0  0  0  0  0  0
   -3.6320   -0.3579    1.3732 C   0  0  0  0  0  0  0  0  0  0  0  0
   -2.7438    0.7086    1.6340 C   0  0  0  0  0  0  0  0  0  0  0  0
   -3.4022   -1.2277    0.1879 C   0  0  0  0  0  0  0  0  0  0  0  0
   -1.8864   -1.2008   -0.2395 C   0  0  1  0  0  0  0  0  0  0  0  0
   -1.6417   -1.9419   -1.5147 N   0  0  0  0  0  0  0  0  0  0  0  0
   -2.5102   -1.5284   -2.6182 C   0  0  0  0  0  0  0  0  0  0  0  0
   -0.2185   -1.8310   -1.8938 C   0  0  0  0  0  0  0  0  0  0  0  0
  1  2  1  0
  2  3  1  0
  3  4  1  0
  4  5  1  0
  5  6  1  0
  6  7  1  0
  7  8  2  0
  9  7  1  1
  9 10  1  0
 10 11  2  0
 11 12  1  0
 12 13  2  0
 13 14  1  0
 14 15  2  0
 15 16  1  0
 16 17  1  0
 17 18  1  0
 18 19  2  0
 19 20  1  0
 19 21  1  0
 22 21  1  6
 22 23  1  0
 23 24  1  0
 23 25  1  0
  5  1  1  0
 25  9  1  0
 22 11  1  0
 20 12  1  0
 20 16  2  0
M  END
$$$$
