
     RDKit          3D

 26 30  0  0  0  0  0  0  0  0999 V2000
    4.7295   -1.5360    0.9444 C   0  0  0  0  0  0  0  0  0  0  0  0
    5.9233   -1.2424    0.0304 C   0  0  0  0  0  0  0  0  0  0  0  0
    5.6008   -0.1939   -1.0238 C   0  0  0  0  0  0  0  0  0  0  0  0
    5.1677    1.1346   -0.4023 C   0  0  0  0  0  0  0  0  0  0  0  0
    4.5824    0.9958    1.0062 C   0  0  0  0  0  0  0  0  0  0  0  0
    3.8240   -0.3203    1.2066 C   0  0  0  0  0  0  0  0  0  0  0  0
    2.6359   -0.3713    0.3591 N   0  0  0  0  0  0  0  0  0  0  0  0
    1.4642    0.2825    0.7093 C   0  0  0  0  0  0  0  0  0  0  0  0
    1.3547    0.9039    1.7637 O   0  0  0  0  0  0  0  0  0  0  0  0
    0.3668    0.2128   -0.3695 C   0  0  2  0  0  0  0  0  0  0  0  0
   -0.7853    1.1265   -0.0403 C   0  0  0  0  0  0  0  0  0  0  0  0
   -2.0021    0.6468    0.2731 C   0  0  0  0  0  0  0  0  0  0  0  0
   -3.1648    1.5447    0.4315 C   0  0  0  0  0  0  0  0  0  0  0  0
   -3.2073    2.8573    0.9055 C   0  0  0  0  0  0  0  0  0  0  0  0
   -4.4239    3.5542    0.9447 C   0  0  0  0  0  0  0  0  0  0  0  0
   -5.6295    2.9731    0.5109 C   0  0  0  0  0  0  0  0  0  0  0  0
   -5.5653    1.6590    0.0405 C   0  0  0  0  0  0  0  0  0  0  0  0
   -6.5214    0.7958   -0.4506 N   0  0  0  0  0  0  0  0  0  0  0  0
   -5.9515   -0.4166   -0.7851 C   0  0  0  0  0  0  0  0  0  0  0  0
   -4.6075   -0.3343   -0.5044 C   0  0  0  0  0  0  0  0  0  0  0  0
   -4.3693    0.9649    0.0044 C   0  0  0  0  0  0  0  0  0  0  0  0
   -3.4656   -1.2950   -0.6183 C   0  0  0  0  0  0  0  0  0  0  0  0
   -2.3100   -0.8727    0.3731 C   0  0  1  0  0  0  0  0  0  0  0  0
   -1.0815   -1.7071    0.3374 N   0  0  0  0  0  0  0  0  0  0  0  0
   -1.3356   -3.1354    0.2219 C   0  0  0  0  0  0  0  0  0  0  0  0
   -0.1021   -1.2340   -0.6451 C   0  0  0  0  0  0  0  0  0  0  0  0
  1  2  1  0
  2  3  1  0
  3  4  1  0
  4  5  1  0
  5  6  1  0
  6  7  1  0
  7  8  1  0
  8  9  2  0
 10  8  1  1
 10 11  1  0
 11 12  2  0
 12 13  1  0
 13 14  2  0
 14 15  1  0
 15 16  2  0
 16 17  1  0
 17 18  1  0
 18 19  1  0
 19 20  2  0
 20 21  1  0
 20 22  1  0
 23 22  1  6
 23 24  1  0
 24 25  1  0
 24 26  1  0
  6  1  1  0
 26 10  1  0
 23 12  1  0
 21 13  1  0
 21 17  2  0
M  END
$$$$
