
     RDKit          3D

 26 29  0  0  0  0  0  0  0  0999 V2000
    5.7217    0.7093    0.3087 C   0  0  0  0  0  0  0  0  0  0  0  0
    4.4556    1.5524    0.3708 C   0  0  0  0  0  0  0  0  0  0  0  0
    3.2414    0.7634    0.1314 N   0  0  0  0  0  0  0  0  0  0  0  0
    2.4127    0.4668    1.3066 C   0  0  0  0  0  0  0  0  0  0  0  0
    3.1147   -0.4132    2.3308 C   0  0  0  0  0  0  0  0  0  0  0  0
    2.9255    0.4845   -1.1967 C   0  0  0  0  0  0  0  0  0  0  0  0
    3.6693    0.8669   -2.1111 O   0  0  0  0  0  0  0  0  0  0  0  0
    1.6657   -0.3086   -1.5897 C   0  0  2  0  0  0  0  0  0  0  0  0
    0.3818    0.3824   -1.2051 C   0  0  0  0  0  0  0  0  0  0  0  0
   -0.6602   -0.3028   -0.6922 C   0  0  0  0  0  0  0  0  0  0  0  0
   -1.8594    0.3988   -0.1699 C   0  0  0  0  0  0  0  0  0  0  0  0
   -2.0091    1.7595    0.1316 C   0  0  0  0  0  0  0  0  0  0  0  0
   -3.2025    2.2637    0.6756 C   0  0  0  0  0  0  0  0  0  0  0  0
   -3.1770    3.6159    0.9117 O   0  0  0  0  0  0  0  0  0  0  0  0
   -4.3667    4.2037    1.4220 C   0  0  0  0  0  0  0  0  0  0  0  0
   -4.2903    1.4175    0.9462 C   0  0  0  0  0  0  0  0  0  0  0  0
   -4.1292    0.0603    0.6438 C   0  0  0  0  0  0  0  0  0  0  0  0
   -4.9740   -1.0208    0.7830 N   0  0  0  0  0  0  0  0  0  0  0  0
   -4.3636   -2.1677    0.3249 C   0  0  0  0  0  0  0  0  0  0  0  0
   -3.1066   -1.8197   -0.1107 C   0  0  0  0  0  0  0  0  0  0  0  0
   -2.9553   -0.4318    0.0983 C   0  0  0  0  0  0  0  0  0  0  0  0
   -2.0051   -2.5874   -0.7522 C   0  0  0  0  0  0  0  0  0  0  0  0
   -0.6223   -1.8602   -0.5496 C   0  0  1  0  0  0  0  0  0  0  0  0
    0.4833   -2.5250   -1.3070 N   0  0  0  0  0  0  0  0  0  0  0  0
    0.1894   -2.7216   -2.7281 C   0  0  0  0  0  0  0  0  0  0  0  0
    1.7449   -1.7745   -1.1299 C   0  0  0  0  0  0  0  0  0  0  0  0
  1  2  1  0
  2  3  1  0
  3  4  1  0
  4  5  1  0
  3  6  1  0
  6  7  2  0
  8  6  1  1
  8  9  1  0
  9 10  2  0
 10 11  1  0
 11 12  2  0
 12 13  1  0
 13 14  1  0
 14 15  1  0
 13 16  2  0
 16 17  1  0
 17 18  1  0
 18 19  1  0
 19 20  2  0
 20 21  1  0
 20 22  1  0
 23 22  1  6
 23 24  1  0
 24 25  1  0
 24 26  1  0
 26  8  1  0
 23 10  1  0
 21 11  1  0
 21 17  2  0
M  END
$$$$
