
     RDKit          3D

 25 28  0  0  0  0  0  0  0  0999 V2000
   -4.8109    1.4745   -0.7352 C   0  0  0  0  0  0  0  0  0  0  0  0
   -4.5174    1.1604    0.7250 C   0  0  0  0  0  0  0  0  0  0  0  0
   -3.4185    0.2015    0.8812 N   0  0  0  0  0  0  0  0  0  0  0  0
   -3.7807   -1.1671    1.2671 C   0  0  0  0  0  0  0  0  0  0  0  0
   -4.6214   -1.8851    0.2211 C   0  0  0  0  0  0  0  0  0  0  0  0
   -2.1160    0.7093    0.7746 C   0  0  0  0  0  0  0  0  0  0  0  0
   -1.9327    1.9158    0.5780 O   0  0  0  0  0  0  0  0  0  0  0  0
   -0.9241   -0.2593    0.9368 C   0  0  2  0  0  0  0  0  0  0  0  0
    0.3535    0.4915    1.2348 C   0  0  0  0  0  0  0  0  0  0  0  0
    1.3793    0.5260    0.3662 C   0  0  0  0  0  0  0  0  0  0  0  0
    2.6825    1.1134    0.7399 C   0  0  0  0  0  0  0  0  0  0  0  0
    2.9551    2.1780    1.5990 C   0  0  0  0  0  0  0  0  0  0  0  0
    4.2803    2.5482    1.8407 C   0  0  0  0  0  0  0  0  0  0  0  0
    4.5210    3.5750    2.6693 F   0  0  0  0  0  0  0  0  0  0  0  0
    5.3744    1.8906    1.2575 C   0  0  0  0  0  0  0  0  0  0  0  0
    5.0801    0.8273    0.4010 C   0  0  0  0  0  0  0  0  0  0  0  0
    5.8723   -0.0303   -0.3318 N   0  0  0  0  0  0  0  0  0  0  0  0
    5.0901   -0.9249   -1.0352 C   0  0  0  0  0  0  0  0  0  0  0  0
    3.7746   -0.6389   -0.7532 C   0  0  0  0  0  0  0  0  0  0  0  0
    3.7719    0.4519    0.1485 C   0  0  0  0  0  0  0  0  0  0  0  0
    2.4697   -1.2173   -1.2056 C   0  0  0  0  0  0  0  0  0  0  0  0
    1.3223   -0.1454   -1.0323 C   0  0  1  0  0  0  0  0  0  0  0  0
   -0.0456   -0.5871   -1.3966 N   0  0  0  0  0  0  0  0  0  0  0  0
   -0.1100   -1.3928   -2.6068 C   0  0  0  0  0  0  0  0  0  0  0  0
   -0.7685   -1.2009   -0.2785 C   0  0  0  0  0  0  0  0  0  0  0  0
  1  2  1  0
  2  3  1  0
  3  4  1  0
  4  5  1  0
  3  6  1  0
  6  7  2  0
  8  6  1  6
  8  9  1  0
  9 10  2  0
 10 11  1  0
 11 12  2  0
 12 13  1  0
 13 14  1  0
 13 15  2  0
 15 16  1  0
 16 17  1  0
 17 18  1  0
 18 19  2  0
 19 20  1  0
 19 21  1  0
 22 21  1  1
 22 23  1  0
 23 24  1  0
 23 25  1  0
 25  8  1  0
 22 10  1  0
 20 11  1  0
 20 16  2  0
M  END
$$$$
