
     RDKit          3D

 25 28  0  0  0  0  0  0  0  0999 V2000
   -4.8199    1.4165   -0.7849 C   0  0  0  0  0  0  0  0  0  0  0  0
   -4.5318    1.1235    0.6808 C   0  0  0  0  0  0  0  0  0  0  0  0
   -3.4257    0.1761    0.8552 N   0  0  0  0  0  0  0  0  0  0  0  0
   -3.7785   -1.1904    1.2567 C   0  0  0  0  0  0  0  0  0  0  0  0
   -4.6071   -1.9290    0.2154 C   0  0  0  0  0  0  0  0  0  0  0  0
   -2.1270    0.6937    0.7492 C   0  0  0  0  0  0  0  0  0  0  0  0
   -1.9527    1.8990    0.5381 O   0  0  0  0  0  0  0  0  0  0  0  0
   -0.9279   -0.2625    0.9303 C   0  0  2  0  0  0  0  0  0  0  0  0
    0.3414    0.5036    1.2255 C   0  0  0  0  0  0  0  0  0  0  0  0
    1.3714    0.5367    0.3618 C   0  0  0  0  0  0  0  0  0  0  0  0
    2.6672    1.1414    0.7342 C   0  0  0  0  0  0  0  0  0  0  0  0
    2.9238    2.2223    1.5796 C   0  0  0  0  0  0  0  0  0  0  0  0
    4.2459    2.6126    1.8278 C   0  0  0  0  0  0  0  0  0  0  0  0
    4.5393    3.9520    2.8765 Cl  0  0  0  0  0  0  0  0  0  0  0  0
    5.3491    1.9510    1.2572 C   0  0  0  0  0  0  0  0  0  0  0  0
    5.0674    0.8723    0.4141 C   0  0  0  0  0  0  0  0  0  0  0  0
    5.8719    0.0112   -0.3015 N   0  0  0  0  0  0  0  0  0  0  0  0
    5.1023   -0.9001   -0.9969 C   0  0  0  0  0  0  0  0  0  0  0  0
    3.7826   -0.6217   -0.7271 C   0  0  0  0  0  0  0  0  0  0  0  0
    3.7650    0.4815    0.1592 C   0  0  0  0  0  0  0  0  0  0  0  0
    2.4858   -1.2178   -1.1795 C   0  0  0  0  0  0  0  0  0  0  0  0
    1.3282   -0.1537   -1.0278 C   0  0  1  0  0  0  0  0  0  0  0  0
   -0.0336   -0.6123   -1.3937 N   0  0  0  0  0  0  0  0  0  0  0  0
   -0.0840   -1.4342   -2.5937 C   0  0  0  0  0  0  0  0  0  0  0  0
   -0.7573   -1.2181   -0.2718 C   0  0  0  0  0  0  0  0  0  0  0  0
  1  2  1  0
  2  3  1  0
  3  4  1  0
  4  5  1  0
  3  6  1  0
  6  7  2  0
  8  6  1  6
  8  9  1  0
  9 10  2  0
 10 11  1  0
 11 12  2  0
 12 13  1  0
 13 14  1  0
 13 15  2  0
 15 16  1  0
 16 17  1  0
 17 18  1  0
 18 19  2  0
 19 20  1  0
 19 21  1  0
 22 21  1  1
 22 23  1  0
 23 24  1  0
 23 25  1  0
 25  8  1  0
 22 10  1  0
 20 11  1  0
 20 16  2  0
M  END
$$$$
