
     RDKit          3D

 25 28  0  0  0  0  0  0  0  0999 V2000
   -4.8166    1.4408   -0.7713 C   0  0  0  0  0  0  0  0  0  0  0  0
   -4.5246    1.1476    0.6936 C   0  0  0  0  0  0  0  0  0  0  0  0
   -3.4227    0.1948    0.8647 N   0  0  0  0  0  0  0  0  0  0  0  0
   -3.7809   -1.1696    1.2688 C   0  0  0  0  0  0  0  0  0  0  0  0
   -4.6173   -1.9048    0.2315 C   0  0  0  0  0  0  0  0  0  0  0  0
   -2.1218    0.7056    0.7535 C   0  0  0  0  0  0  0  0  0  0  0  0
   -1.9423    1.9100    0.5411 O   0  0  0  0  0  0  0  0  0  0  0  0
   -0.9268   -0.2565    0.9308 C   0  0  2  0  0  0  0  0  0  0  0  0
    0.3476    0.5028    1.2202 C   0  0  0  0  0  0  0  0  0  0  0  0
    1.3752    0.5279    0.3533 C   0  0  0  0  0  0  0  0  0  0  0  0
    2.6761    1.1250    0.7205 C   0  0  0  0  0  0  0  0  0  0  0  0
    2.9418    2.2068    1.5618 C   0  0  0  0  0  0  0  0  0  0  0  0
    4.2678    2.5885    1.8048 C   0  0  0  0  0  0  0  0  0  0  0  0
    4.6021    4.0627    2.9502 Br  0  0  0  0  0  0  0  0  0  0  0  0
    5.3657    1.9183    1.2339 C   0  0  0  0  0  0  0  0  0  0  0  0
    5.0733    0.8390    0.3950 C   0  0  0  0  0  0  0  0  0  0  0  0
    5.8699   -0.0298   -0.3202 N   0  0  0  0  0  0  0  0  0  0  0  0
    5.0927   -0.9378   -1.0114 C   0  0  0  0  0  0  0  0  0  0  0  0
    3.7757   -0.6497   -0.7389 C   0  0  0  0  0  0  0  0  0  0  0  0
    3.7678    0.4561    0.1445 C   0  0  0  0  0  0  0  0  0  0  0  0
    2.4736   -1.2377   -1.1866 C   0  0  0  0  0  0  0  0  0  0  0  0
    1.3238   -0.1652   -1.0345 C   0  0  1  0  0  0  0  0  0  0  0  0
   -0.0422   -0.6153   -1.3959 N   0  0  0  0  0  0  0  0  0  0  0  0
   -0.1012   -1.4389   -2.5943 C   0  0  0  0  0  0  0  0  0  0  0  0
   -0.7663   -1.2148   -0.2708 C   0  0  0  0  0  0  0  0  0  0  0  0
  1  2  1  0
  2  3  1  0
  3  4  1  0
  4  5  1  0
  3  6  1  0
  6  7  2  0
  8  6  1  6
  8  9  1  0
  9 10  2  0
 10 11  1  0
 11 12  2  0
 12 13  1  0
 13 14  1  0
 13 15  2  0
 15 16  1  0
 16 17  1  0
 17 18  1  0
 18 19  2  0
 19 20  1  0
 19 21  1  0
 22 21  1  1
 22 23  1  0
 23 24  1  0
 23 25  1  0
 25  8  1  0
 22 10  1  0
 20 11  1  0
 20 16  2  0
M  END
$$$$
