
     RDKit          3D

 25 28  0  0  0  0  0  0  0  0999 V2000
   -5.1029    1.6266    1.3932 C   0  0  0  0  0  0  0  0  0  0  0  0
   -4.7466    1.3141   -0.0526 C   0  0  0  0  0  0  0  0  0  0  0  0
   -3.6574    0.3425   -0.1876 N   0  0  0  0  0  0  0  0  0  0  0  0
   -4.0261   -1.0687   -0.3410 C   0  0  0  0  0  0  0  0  0  0  0  0
   -4.1998   -1.7891    0.9866 C   0  0  0  0  0  0  0  0  0  0  0  0
   -2.3521    0.8100   -0.0022 C   0  0  0  0  0  0  0  0  0  0  0  0
   -2.1328    2.0030    0.2334 O   0  0  0  0  0  0  0  0  0  0  0  0
   -1.1886   -0.1875   -0.1485 C   0  0  2  0  0  0  0  0  0  0  0  0
   -0.0272    0.2084    0.7284 C   0  0  0  0  0  0  0  0  0  0  0  0
    1.2424    0.1289    0.2888 C   0  0  0  0  0  0  0  0  0  0  0  0
    2.3718    0.5707    1.1392 C   0  0  0  0  0  0  0  0  0  0  0  0
    2.3639    1.5057    2.1811 C   0  0  0  0  0  0  0  0  0  0  0  0
    3.5488    1.7958    2.8663 C   0  0  0  0  0  0  0  0  0  0  0  0
    3.5582    2.7106    3.8846 O   0  0  0  0  0  0  0  0  0  0  0  0
    4.7713    1.1861    2.5563 C   0  0  0  0  0  0  0  0  0  0  0  0
    4.7597    0.2631    1.5085 C   0  0  0  0  0  0  0  0  0  0  0  0
    5.7506   -0.5057    0.9376 N   0  0  0  0  0  0  0  0  0  0  0  0
    5.2335   -1.2695   -0.0880 C   0  0  0  0  0  0  0  0  0  0  0  0
    3.8897   -0.9884   -0.1768 C   0  0  0  0  0  0  0  0  0  0  0  0
    3.5955   -0.0344    0.8207 C   0  0  0  0  0  0  0  0  0  0  0  0
    2.7949   -1.4834   -1.0594 C   0  0  0  0  0  0  0  0  0  0  0  0
    1.6055   -0.4478   -1.1166 C   0  0  1  0  0  0  0  0  0  0  0  0
    0.4344   -1.0552   -1.8254 N   0  0  0  0  0  0  0  0  0  0  0  0
    0.6939   -1.2042   -3.2605 C   0  0  0  0  0  0  0  0  0  0  0  0
   -0.7749   -0.2302   -1.6289 C   0  0  0  0  0  0  0  0  0  0  0  0
  1  2  1  0
  2  3  1  0
  3  4  1  0
  4  5  1  0
  3  6  1  0
  6  7  2  0
  8  6  1  6
  8  9  1  0
  9 10  2  0
 10 11  1  0
 11 12  2  0
 12 13  1  0
 13 14  1  0
 13 15  2  0
 15 16  1  0
 16 17  1  0
 17 18  1  0
 18 19  2  0
 19 20  1  0
 19 21  1  0
 22 21  1  1
 22 23  1  0
 23 24  1  0
 23 25  1  0
 25  8  1  0
 22 10  1  0
 20 11  1  0
 20 16  2  0
M  END
$$$$
