
     RDKit          3D

 25 28  0  0  0  0  0  0  0  0999 V2000
    2.7100    1.9736   -2.3273 C   0  0  0  0  0  0  0  0  0  0  0  0
    3.0305    0.5093   -2.0564 C   0  0  0  0  0  0  0  0  0  0  0  0
    3.3917    0.2549   -0.6554 N   0  0  0  0  0  0  0  0  0  0  0  0
    4.7066    0.7335   -0.2144 C   0  0  0  0  0  0  0  0  0  0  0  0
    5.8034   -0.2908   -0.4683 C   0  0  0  0  0  0  0  0  0  0  0  0
    2.6796   -0.5536    0.2410 C   0  0  0  0  0  0  0  0  0  0  0  0
    3.1262   -0.7826    1.3698 O   0  0  0  0  0  0  0  0  0  0  0  0
    1.3257   -1.1462   -0.1995 C   0  0  2  0  0  0  0  0  0  0  0  0
    0.2454   -0.0889   -0.1728 C   0  0  0  0  0  0  0  0  0  0  0  0
   -0.9867   -0.3282    0.3202 C   0  0  0  0  0  0  0  0  0  0  0  0
   -1.9898    0.7597    0.4487 C   0  0  0  0  0  0  0  0  0  0  0  0
   -1.7792    2.1473    0.4301 C   0  0  0  0  0  0  0  0  0  0  0  0
   -2.8340    3.0532    0.6347 C   0  0  0  0  0  0  0  0  0  0  0  0
   -2.5984    4.4332    0.5002 N   0  0  0  0  0  0  0  0  0  0  0  0
   -4.1553    2.5905    0.7663 C   0  0  0  0  0  0  0  0  0  0  0  0
   -4.3567    1.2076    0.7950 C   0  0  0  0  0  0  0  0  0  0  0  0
   -5.4926    0.4419    0.9467 N   0  0  0  0  0  0  0  0  0  0  0  0
   -5.1771   -0.8984    0.8928 C   0  0  0  0  0  0  0  0  0  0  0  0
   -3.8191   -0.9948    0.6973 C   0  0  0  0  0  0  0  0  0  0  0  0
   -3.3058    0.3195    0.6433 C   0  0  0  0  0  0  0  0  0  0  0  0
   -2.8989   -2.1485    0.5016 C   0  0  0  0  0  0  0  0  0  0  0  0
   -1.4124   -1.7421    0.8316 C   0  0  1  0  0  0  0  0  0  0  0  0
   -0.4349   -2.8271    0.5149 N   0  0  0  0  0  0  0  0  0  0  0  0
   -0.5928   -3.4087   -0.8162 C   0  0  0  0  0  0  0  0  0  0  0  0
    0.9416   -2.3262    0.7263 C   0  0  0  0  0  0  0  0  0  0  0  0
  1  2  1  0
  2  3  1  0
  3  4  1  0
  4  5  1  0
  3  6  1  0
  6  7  2  0
  8  6  1  1
  8  9  1  0
  9 10  2  0
 10 11  1  0
 11 12  2  0
 12 13  1  0
 13 14  1  0
 13 15  2  0
 15 16  1  0
 16 17  1  0
 17 18  1  0
 18 19  2  0
 19 20  1  0
 19 21  1  0
 22 21  1  6
 22 23  1  0
 23 24  1  0
 23 25  1  0
 25  8  1  0
 22 10  1  0
 20 11  1  0
 20 16  2  0
M  END
$$$$
