
     RDKit          3D

 28 31  0  0  0  0  0  0  0  0999 V2000
    3.7832    2.7586   -1.0004 C   0  0  0  0  0  0  0  0  0  0  0  0
    4.0631    1.2676   -1.0999 C   0  0  0  0  0  0  0  0  0  0  0  0
    3.8071    0.5478    0.1519 N   0  0  0  0  0  0  0  0  0  0  0  0
    4.9043    0.4663    1.1205 C   0  0  0  0  0  0  0  0  0  0  0  0
    4.8646    1.5648    2.1725 C   0  0  0  0  0  0  0  0  0  0  0  0
    2.5559    0.0712    0.5566 C   0  0  0  0  0  0  0  0  0  0  0  0
    2.3998   -0.4334    1.6734 O   0  0  0  0  0  0  0  0  0  0  0  0
    1.3864    0.1409   -0.4420 C   0  0  2  0  0  0  0  0  0  0  0  0
    0.0727    0.3151    0.2782 C   0  0  0  0  0  0  0  0  0  0  0  0
   -1.0289   -0.3610   -0.0975 C   0  0  0  0  0  0  0  0  0  0  0  0
   -2.3002   -0.2200    0.6485 C   0  0  0  0  0  0  0  0  0  0  0  0
   -2.4913    0.1565    1.9833 C   0  0  0  0  0  0  0  0  0  0  0  0
   -3.7858    0.2309    2.5417 C   0  0  0  0  0  0  0  0  0  0  0  0
   -3.9493    0.6624    3.9807 C   0  0  0  0  0  0  0  0  0  0  0  0
   -3.0052    0.1330    4.8076 F   0  0  0  0  0  0  0  0  0  0  0  0
   -3.8627    2.0134    4.1295 F   0  0  0  0  0  0  0  0  0  0  0  0
   -5.1511    0.3061    4.5174 F   0  0  0  0  0  0  0  0  0  0  0  0
   -4.9263   -0.0650    1.7601 C   0  0  0  0  0  0  0  0  0  0  0  0
   -4.7142   -0.4469    0.4330 C   0  0  0  0  0  0  0  0  0  0  0  0
   -5.5801   -0.8037   -0.5789 N   0  0  0  0  0  0  0  0  0  0  0  0
   -4.8780   -1.0994   -1.7282 C   0  0  0  0  0  0  0  0  0  0  0  0
   -3.5415   -0.9292   -1.4518 C   0  0  0  0  0  0  0  0  0  0  0  0
   -3.4412   -0.5222   -0.1043 C   0  0  0  0  0  0  0  0  0  0  0  0
   -2.3010   -1.0765   -2.2654 C   0  0  0  0  0  0  0  0  0  0  0  0
   -1.0437   -1.3070   -1.3405 C   0  0  1  0  0  0  0  0  0  0  0  0
    0.2094   -1.2289   -2.1564 N   0  0  0  0  0  0  0  0  0  0  0  0
    0.3429   -2.3842   -3.0489 C   0  0  0  0  0  0  0  0  0  0  0  0
    1.3945   -1.1492   -1.2784 C   0  0  0  0  0  0  0  0  0  0  0  0
  1  2  1  0
  2  3  1  0
  3  4  1  0
  4  5  1  0
  3  6  1  0
  6  7  2  0
  8  6  1  1
  8  9  1  0
  9 10  2  0
 10 11  1  0
 11 12  2  0
 12 13  1  0
 13 14  1  0
 14 15  1  0
 14 16  1  0
 14 17  1  0
 13 18  2  0
 18 19  1  0
 19 20  1  0
 20 21  1  0
 21 22  2  0
 22 23  1  0
 22 24  1  0
 25 24  1  6
 25 26  1  0
 26 27  1  0
 26 28  1  0
 28  8  1  0
 25 10  1  0
 23 11  1  0
 23 19  2  0
M  END
$$$$
