
     RDKit          3D

 25 28  0  0  0  0  0  0  0  0999 V2000
    5.6883   -1.7484    0.1592 C   0  0  0  0  0  0  0  0  0  0  0  0
    5.2339   -0.3807    0.6443 C   0  0  0  0  0  0  0  0  0  0  0  0
    4.0024    0.0457   -0.0231 N   0  0  0  0  0  0  0  0  0  0  0  0
    4.1571    0.8456   -1.2405 C   0  0  0  0  0  0  0  0  0  0  0  0
    4.2633    2.3309   -0.9307 C   0  0  0  0  0  0  0  0  0  0  0  0
    2.7854   -0.3096    0.5625 C   0  0  0  0  0  0  0  0  0  0  0  0
    2.7517   -0.9871    1.5949 O   0  0  0  0  0  0  0  0  0  0  0  0
    1.4842    0.1253   -0.1341 C   0  0  2  0  0  0  0  0  0  0  0  0
    0.3992    0.4058    0.8742 C   0  0  0  0  0  0  0  0  0  0  0  0
   -0.8709    0.0122    0.6641 C   0  0  0  0  0  0  0  0  0  0  0  0
   -1.9208    0.2512    1.6805 C   0  0  0  0  0  0  0  0  0  0  0  0
   -1.7749    0.4216    3.0619 C   0  0  0  0  0  0  0  0  0  0  0  0
   -2.8964    0.6318    3.8770 C   0  0  0  0  0  0  0  0  0  0  0  0
   -4.1972    0.6771    3.3493 C   0  0  0  0  0  0  0  0  0  0  0  0
   -4.3248    0.4991    1.9699 C   0  0  0  0  0  0  0  0  0  0  0  0
   -5.4207    0.4800    1.1354 N   0  0  0  0  0  0  0  0  0  0  0  0
   -5.0337    0.2700   -0.1755 C   0  0  0  0  0  0  0  0  0  0  0  0
   -6.0228    0.2113   -1.2784 C   0  0  0  0  0  0  0  0  0  0  0  0
   -3.6594    0.1459   -0.1734 C   0  0  0  0  0  0  0  0  0  0  0  0
   -3.2217    0.2923    1.1609 C   0  0  0  0  0  0  0  0  0  0  0  0
   -2.6484   -0.0823   -1.2473 C   0  0  0  0  0  0  0  0  0  0  0  0
   -1.3200   -0.6922   -0.6544 C   0  0  1  0  0  0  0  0  0  0  0  0
   -0.2544   -0.7117   -1.7077 N   0  0  0  0  0  0  0  0  0  0  0  0
   -0.5388   -1.7128   -2.7398 C   0  0  0  0  0  0  0  0  0  0  0  0
    1.0639   -0.9917   -1.1036 C   0  0  0  0  0  0  0  0  0  0  0  0
  1  2  1  0
  2  3  1  0
  3  4  1  0
  4  5  1  0
  3  6  1  0
  6  7  2  0
  8  6  1  1
  8  9  1  0
  9 10  2  0
 10 11  1  0
 11 12  2  0
 12 13  1  0
 13 14  2  0
 14 15  1  0
 15 16  1  0
 16 17  1  0
 17 18  1  0
 17 19  2  0
 19 20  1  0
 19 21  1  0
 22 21  1  6
 22 23  1  0
 23 24  1  0
 23 25  1  0
 25  8  1  0
 22 10  1  0
 20 11  1  0
 20 15  2  0
M  END
$$$$
