
     RDKit          3D

 25 28  0  0  0  0  0  0  0  0999 V2000
   -5.3561   -0.6387    2.0014 C   0  0  0  0  0  0  0  0  0  0  0  0
   -5.0515    0.3264    0.8650 C   0  0  0  0  0  0  0  0  0  0  0  0
   -3.9350   -0.0995    0.0155 N   0  0  0  0  0  0  0  0  0  0  0  0
   -4.2601   -0.8727   -1.1879 C   0  0  0  0  0  0  0  0  0  0  0  0
   -4.3789   -2.3658   -0.9263 C   0  0  0  0  0  0  0  0  0  0  0  0
   -2.6398    0.1157    0.5045 C   0  0  0  0  0  0  0  0  0  0  0  0
   -2.4634    0.6304    1.6131 O   0  0  0  0  0  0  0  0  0  0  0  0
   -1.4467   -0.2868   -0.3852 C   0  0  2  0  0  0  0  0  0  0  0  0
   -0.2007   -0.5615    0.4194 C   0  0  0  0  0  0  0  0  0  0  0  0
    0.9281    0.1465    0.2435 C   0  0  0  0  0  0  0  0  0  0  0  0
    2.2104   -0.2797    0.8426 C   0  0  0  0  0  0  0  0  0  0  0  0
    2.4439   -0.9134    2.0633 C   0  0  0  0  0  0  0  0  0  0  0  0
    3.7486   -1.2698    2.4306 C   0  0  0  0  0  0  0  0  0  0  0  0
    4.8530   -1.0145    1.5967 C   0  0  0  0  0  0  0  0  0  0  0  0
    4.6027   -0.3797    0.3731 C   0  0  0  0  0  0  0  0  0  0  0  0
    5.4123    0.0192   -0.6726 N   0  0  0  0  0  0  0  0  0  0  0  0
    6.8458   -0.1602   -0.7186 C   0  0  0  0  0  0  0  0  0  0  0  0
    4.6641    0.6173   -1.6666 C   0  0  0  0  0  0  0  0  0  0  0  0
    3.3502    0.6071   -1.2597 C   0  0  0  0  0  0  0  0  0  0  0  0
    3.3145   -0.0219    0.0108 C   0  0  0  0  0  0  0  0  0  0  0  0
    2.0740    1.1128   -1.8611 C   0  0  0  0  0  0  0  0  0  0  0  0
    1.0275    1.3587   -0.7125 C   0  0  1  0  0  0  0  0  0  0  0  0
   -0.2662    1.8394   -1.2593 N   0  0  0  0  0  0  0  0  0  0  0  0
   -0.8602    2.8396   -0.3671 C   0  0  0  0  0  0  0  0  0  0  0  0
   -1.2038    0.7325   -1.5235 C   0  0  0  0  0  0  0  0  0  0  0  0
  1  2  1  0
  2  3  1  0
  3  4  1  0
  4  5  1  0
  3  6  1  0
  6  7  2  0
  8  6  1  1
  8  9  1  0
  9 10  2  0
 10 11  1  0
 11 12  2  0
 12 13  1  0
 13 14  2  0
 14 15  1  0
 15 16  1  0
 16 17  1  0
 16 18  1  0
 18 19  2  0
 19 20  1  0
 19 21  1  0
 22 21  1  6
 22 23  1  0
 23 24  1  0
 23 25  1  0
 25  8  1  0
 22 10  1  0
 20 11  1  0
 20 15  2  0
M  END
$$$$
