
     RDKit          3D

 26 29  0  0  0  0  0  0  0  0999 V2000
   -5.5278    2.1251    1.2065 C   0  0  0  0  0  0  0  0  0  0  0  0
   -5.3085    0.7150    1.7369 C   0  0  0  0  0  0  0  0  0  0  0  0
   -4.3440   -0.0458    0.9350 N   0  0  0  0  0  0  0  0  0  0  0  0
   -4.8897   -1.0750    0.0416 C   0  0  0  0  0  0  0  0  0  0  0  0
   -5.7341   -0.5013   -1.0864 C   0  0  0  0  0  0  0  0  0  0  0  0
   -2.9875    0.2113    1.1604 C   0  0  0  0  0  0  0  0  0  0  0  0
   -2.6389    1.0528    1.9957 O   0  0  0  0  0  0  0  0  0  0  0  0
   -1.9357   -0.5633    0.3402 C   0  0  2  0  0  0  0  0  0  0  0  0
   -0.5806   -0.5229    1.0158 C   0  0  0  0  0  0  0  0  0  0  0  0
    0.5561   -0.2616    0.3393 C   0  0  0  0  0  0  0  0  0  0  0  0
    1.8509   -0.0883    1.0457 C   0  0  0  0  0  0  0  0  0  0  0  0
    2.0646    0.1627    2.4071 C   0  0  0  0  0  0  0  0  0  0  0  0
    3.3597    0.3458    2.9080 C   0  0  0  0  0  0  0  0  0  0  0  0
    4.4864    0.2947    2.0742 C   0  0  0  0  0  0  0  0  0  0  0  0
    4.2676    0.0507    0.7128 C   0  0  0  0  0  0  0  0  0  0  0  0
    5.1156   -0.0515   -0.3734 N   0  0  0  0  0  0  0  0  0  0  0  0
    6.5625    0.0736   -0.3295 C   0  0  0  0  0  0  0  0  0  0  0  0
    7.0180    1.5177   -0.4432 C   0  0  0  0  0  0  0  0  0  0  0  0
    4.3966   -0.3114   -1.5213 C   0  0  0  0  0  0  0  0  0  0  0  0
    3.0679   -0.3703   -1.1725 C   0  0  0  0  0  0  0  0  0  0  0  0
    2.9840   -0.1383    0.2179 C   0  0  0  0  0  0  0  0  0  0  0  0
    1.8280   -0.6527   -1.9449 C   0  0  0  0  0  0  0  0  0  0  0  0
    0.5641   -0.0681   -1.2088 C   0  0  1  0  0  0  0  0  0  0  0  0
   -0.7177   -0.4495   -1.8800 N   0  0  0  0  0  0  0  0  0  0  0  0
   -0.8390   -1.8799   -2.1589 C   0  0  0  0  0  0  0  0  0  0  0  0
   -1.8587    0.0373   -1.0770 C   0  0  0  0  0  0  0  0  0  0  0  0
  1  2  1  0
  2  3  1  0
  3  4  1  0
  4  5  1  0
  3  6  1  0
  6  7  2  0
  8  6  1  1
  8  9  1  0
  9 10  2  0
 10 11  1  0
 11 12  2  0
 12 13  1  0
 13 14  2  0
 14 15  1  0
 15 16  1  0
 16 17  1  0
 17 18  1  0
 16 19  1  0
 19 20  2  0
 20 21  1  0
 20 22  1  0
 23 22  1  6
 23 24  1  0
 24 25  1  0
 24 26  1  0
 26  8  1  0
 23 10  1  0
 21 11  1  0
 21 15  2  0
M  END
$$$$
