
     RDKit          3D

 27 30  0  0  0  0  0  0  0  0999 V2000
   -6.7212   -0.9117    0.2406 C   0  0  0  0  0  0  0  0  0  0  0  0
   -5.9847   -0.1402   -0.8432 C   0  0  0  0  0  0  0  0  0  0  0  0
   -4.7609    0.4769   -0.3280 N   0  0  0  0  0  0  0  0  0  0  0  0
   -4.8762    1.8494    0.1708 C   0  0  0  0  0  0  0  0  0  0  0  0
   -4.6829    2.8717   -0.9388 C   0  0  0  0  0  0  0  0  0  0  0  0
   -3.5812   -0.2685   -0.3807 C   0  0  0  0  0  0  0  0  0  0  0  0
   -3.5787   -1.4224   -0.8218 O   0  0  0  0  0  0  0  0  0  0  0  0
   -2.2904    0.3659    0.1659 C   0  0  2  0  0  0  0  0  0  0  0  0
   -1.0865   -0.1043   -0.6102 C   0  0  0  0  0  0  0  0  0  0  0  0
    0.0670   -0.4184    0.0085 C   0  0  0  0  0  0  0  0  0  0  0  0
    1.2299   -0.9244   -0.7575 C   0  0  0  0  0  0  0  0  0  0  0  0
    1.2349   -1.5883   -1.9885 C   0  0  0  0  0  0  0  0  0  0  0  0
    2.4403   -2.0064   -2.5655 C   0  0  0  0  0  0  0  0  0  0  0  0
    3.6766   -1.7819   -1.9386 C   0  0  0  0  0  0  0  0  0  0  0  0
    3.6629   -1.1224   -0.7024 C   0  0  0  0  0  0  0  0  0  0  0  0
    4.6559   -0.7384    0.1788 N   0  0  0  0  0  0  0  0  0  0  0  0
    6.0803   -0.9747    0.0142 C   0  0  0  0  0  0  0  0  0  0  0  0
    6.8574    0.2574   -0.4497 C   0  0  0  0  0  0  0  0  0  0  0  0
    6.5189    0.6819   -1.8712 C   0  0  0  0  0  0  0  0  0  0  0  0
    4.1043   -0.1136    1.2804 C   0  0  0  0  0  0  0  0  0  0  0  0
    2.7418   -0.0802    1.1006 C   0  0  0  0  0  0  0  0  0  0  0  0
    2.4669   -0.7076   -0.1332 C   0  0  0  0  0  0  0  0  0  0  0  0
    1.6174    0.4638    1.9135 C   0  0  0  0  0  0  0  0  0  0  0  0
    0.2606   -0.2515    1.5483 C   0  0  1  0  0  0  0  0  0  0  0  0
   -0.8811    0.4519    2.2163 N   0  0  0  0  0  0  0  0  0  0  0  0
   -0.8764    0.2261    3.6646 C   0  0  0  0  0  0  0  0  0  0  0  0
   -2.1687   -0.0027    1.6536 C   0  0  0  0  0  0  0  0  0  0  0  0
  1  2  1  0
  2  3  1  0
  3  4  1  0
  4  5  1  0
  3  6  1  0
  6  7  2  0
  8  6  1  6
  8  9  1  0
  9 10  2  0
 10 11  1  0
 11 12  2  0
 12 13  1  0
 13 14  2  0
 14 15  1  0
 15 16  1  0
 16 17  1  0
 17 18  1  0
 18 19  1  0
 16 20  1  0
 20 21  2  0
 21 22  1  0
 21 23  1  0
 24 23  1  6
 24 25  1  0
 25 26  1  0
 25 27  1  0
 27  8  1  0
 24 10  1  0
 22 11  1  0
 22 15  2  0
M  END
$$$$
