
     RDKit          3D

 27 30  0  0  0  0  0  0  0  0999 V2000
   -5.8300   -1.3716    2.1143 C   0  0  0  0  0  0  0  0  0  0  0  0
   -5.5660    0.1128    1.9097 C   0  0  0  0  0  0  0  0  0  0  0  0
   -4.5902    0.3904    0.8520 N   0  0  0  0  0  0  0  0  0  0  0  0
   -5.1094    0.6584   -0.4931 C   0  0  0  0  0  0  0  0  0  0  0  0
   -5.3068   -0.6021   -1.3200 C   0  0  0  0  0  0  0  0  0  0  0  0
   -3.2368    0.2259    1.1666 C   0  0  0  0  0  0  0  0  0  0  0  0
   -2.8861   -0.1027    2.3047 O   0  0  0  0  0  0  0  0  0  0  0  0
   -2.1905    0.5158    0.0752 C   0  0  2  0  0  0  0  0  0  0  0  0
   -0.9666   -0.3461    0.2550 C   0  0  0  0  0  0  0  0  0  0  0  0
    0.2724    0.1510    0.0825 C   0  0  0  0  0  0  0  0  0  0  0  0
    1.4700   -0.6914    0.3081 C   0  0  0  0  0  0  0  0  0  0  0  0
    1.5957   -1.8207    1.1239 C   0  0  0  0  0  0  0  0  0  0  0  0
    2.8208   -2.4923    1.2248 C   0  0  0  0  0  0  0  0  0  0  0  0
    3.9582   -2.0645    0.5214 C   0  0  0  0  0  0  0  0  0  0  0  0
    3.8238   -0.9306   -0.2898 C   0  0  0  0  0  0  0  0  0  0  0  0
    4.7043   -0.2383   -1.1007 N   0  0  0  0  0  0  0  0  0  0  0  0
    6.0989   -0.5966   -1.3369 C   0  0  0  0  0  0  0  0  0  0  0  0
    7.0034   -0.0551   -0.2676 C   0  0  0  0  0  0  0  0  0  0  0  0
    7.8471   -0.7975    0.4622 C   0  0  0  0  0  0  0  0  0  0  0  0
    4.0667    0.8354   -1.6933 C   0  0  0  0  0  0  0  0  0  0  0  0
    2.7619    0.8348   -1.2590 C   0  0  0  0  0  0  0  0  0  0  0  0
    2.6105   -0.2650   -0.3876 C   0  0  0  0  0  0  0  0  0  0  0  0
    1.5914    1.7137   -1.5396 C   0  0  0  0  0  0  0  0  0  0  0  0
    0.5255    1.6197   -0.3813 C   0  0  1  0  0  0  0  0  0  0  0  0
   -0.7264    2.3380   -0.7830 N   0  0  0  0  0  0  0  0  0  0  0  0
   -0.5276    3.7901   -0.8059 C   0  0  0  0  0  0  0  0  0  0  0  0
   -1.8305    2.0092    0.1413 C   0  0  0  0  0  0  0  0  0  0  0  0
  1  2  1  0
  2  3  1  0
  3  4  1  0
  4  5  1  0
  3  6  1  0
  6  7  2  0
  8  6  1  1
  8  9  1  0
  9 10  2  0
 10 11  1  0
 11 12  2  0
 12 13  1  0
 13 14  2  0
 14 15  1  0
 15 16  1  0
 16 17  1  0
 17 18  1  0
 18 19  2  0
 16 20  1  0
 20 21  2  0
 21 22  1  0
 21 23  1  0
 24 23  1  6
 24 25  1  0
 25 26  1  0
 25 27  1  0
 27  8  1  0
 24 10  1  0
 22 11  1  0
 22 15  2  0
M  END
$$$$
