
     RDKit          3D

 25 28  0  0  0  0  0  0  0  0999 V2000
   -5.7063    0.5833   -0.9643 C   0  0  0  0  0  0  0  0  0  0  0  0
   -4.8373   -0.4458   -0.2556 C   0  0  0  0  0  0  0  0  0  0  0  0
   -3.4492   -0.4150   -0.7281 N   0  0  0  0  0  0  0  0  0  0  0  0
   -3.1285   -1.2441   -1.8976 C   0  0  0  0  0  0  0  0  0  0  0  0
   -3.0937   -2.7321   -1.5742 C   0  0  0  0  0  0  0  0  0  0  0  0
   -2.5998    0.5315   -0.1401 C   0  0  0  0  0  0  0  0  0  0  0  0
   -3.0019    1.2502    0.7814 O   0  0  0  0  0  0  0  0  0  0  0  0
   -1.1512    0.6558   -0.6502 C   0  0  2  0  0  0  0  0  0  0  0  0
   -0.3026   -0.4793   -0.1309 C   0  0  0  0  0  0  0  0  0  0  0  0
    0.9672   -0.2863    0.2752 C   0  0  0  0  0  0  0  0  0  0  0  0
    1.7706   -1.4038    0.8245 C   0  0  0  0  0  0  0  0  0  0  0  0
    1.3256   -2.5871    1.4259 C   0  0  0  0  0  0  0  0  0  0  0  0
    2.2426   -3.5366    1.8999 C   0  0  0  0  0  0  0  0  0  0  0  0
    3.6296   -3.3430    1.7958 C   0  0  0  0  0  0  0  0  0  0  0  0
    4.0571   -2.1550    1.1992 C   0  0  0  0  0  0  0  0  0  0  0  0
    5.3120   -1.6458    0.9424 N   0  0  0  0  0  0  0  0  0  0  0  0
    5.2142   -0.4166    0.3253 C   0  0  0  0  0  0  0  0  0  0  0  0
    3.8762   -0.1306    0.1835 C   0  0  0  0  0  0  0  0  0  0  0  0
    3.1557   -1.2151    0.7283 C   0  0  0  0  0  0  0  0  0  0  0  0
    3.1329    1.0191   -0.4049 C   0  0  0  0  0  0  0  0  0  0  0  0
    1.6719    1.1064    0.1801 C   0  0  1  0  0  0  0  0  0  0  0  0
    0.8652    2.1024   -0.5846 N   0  0  0  0  0  0  0  0  0  0  0  0
    1.3606    3.4845   -0.5113 C   0  0  0  0  0  0  0  0  0  0  0  0
    1.4400    4.1196    0.8739 C   0  0  0  0  0  0  0  0  0  0  0  0
   -0.5593    2.0125   -0.2077 C   0  0  0  0  0  0  0  0  0  0  0  0
  1  2  1  0
  2  3  1  0
  3  4  1  0
  4  5  1  0
  3  6  1  0
  6  7  2  0
  8  6  1  1
  8  9  1  0
  9 10  2  0
 10 11  1  0
 11 12  2  0
 12 13  1  0
 13 14  2  0
 14 15  1  0
 15 16  1  0
 16 17  1  0
 17 18  2  0
 18 19  1  0
 18 20  1  0
 21 20  1  6
 21 22  1  0
 22 23  1  0
 23 24  1  0
 22 25  1  0
 25  8  1  0
 21 10  1  0
 19 11  1  0
 19 15  2  0
M  END
$$$$
