
     RDKit          3D

 26 29  0  0  0  0  0  0  0  0999 V2000
    4.3127   -0.1595    1.3835 C   0  0  0  0  0  0  0  0  0  0  0  0
    3.6651   -1.1015    0.3812 C   0  0  0  0  0  0  0  0  0  0  0  0
    3.3543   -0.4547   -0.8980 N   0  0  0  0  0  0  0  0  0  0  0  0
    4.4088   -0.4250   -1.9148 C   0  0  0  0  0  0  0  0  0  0  0  0
    5.2215    0.8613   -1.9037 C   0  0  0  0  0  0  0  0  0  0  0  0
    2.1784    0.2562   -1.1673 C   0  0  0  0  0  0  0  0  0  0  0  0
    2.0294    0.8535   -2.2379 O   0  0  0  0  0  0  0  0  0  0  0  0
    1.0552    0.2341   -0.1148 C   0  0  2  0  0  0  0  0  0  0  0  0
    0.2237   -1.0088   -0.2862 C   0  0  0  0  0  0  0  0  0  0  0  0
   -1.1111   -0.9804   -0.1238 C   0  0  0  0  0  0  0  0  0  0  0  0
   -1.9233   -2.2036   -0.3173 C   0  0  0  0  0  0  0  0  0  0  0  0
   -1.6496   -3.3197   -1.1155 C   0  0  0  0  0  0  0  0  0  0  0  0
   -2.5499   -4.3939   -1.1717 C   0  0  0  0  0  0  0  0  0  0  0  0
   -3.7493   -4.3951   -0.4401 C   0  0  0  0  0  0  0  0  0  0  0  0
   -4.0087   -3.2710    0.3469 C   0  0  0  0  0  0  0  0  0  0  0  0
   -5.0612   -2.9376    1.1723 N   0  0  0  0  0  0  0  0  0  0  0  0
   -4.8531   -1.6973    1.7387 C   0  0  0  0  0  0  0  0  0  0  0  0
   -3.6487   -1.2257    1.2705 C   0  0  0  0  0  0  0  0  0  0  0  0
   -3.1232   -2.2085    0.4051 C   0  0  0  0  0  0  0  0  0  0  0  0
   -2.8758    0.0283    1.5061 C   0  0  0  0  0  0  0  0  0  0  0  0
   -1.8789    0.3092    0.3123 C   0  0  1  0  0  0  0  0  0  0  0  0
   -0.9818    1.4676    0.6500 N   0  0  0  0  0  0  0  0  0  0  0  0
   -1.7323    2.7424    0.5959 C   0  0  0  0  0  0  0  0  0  0  0  0
   -0.9505    3.9726    1.0904 C   0  0  0  0  0  0  0  0  0  0  0  0
   -0.4652    4.8701   -0.0400 C   0  0  0  0  0  0  0  0  0  0  0  0
    0.1800    1.4943   -0.2660 C   0  0  0  0  0  0  0  0  0  0  0  0
  1  2  1  0
  2  3  1  0
  3  4  1  0
  4  5  1  0
  3  6  1  0
  6  7  2  0
  8  6  1  6
  8  9  1  0
  9 10  2  0
 10 11  1  0
 11 12  2  0
 12 13  1  0
 13 14  2  0
 14 15  1  0
 15 16  1  0
 16 17  1  0
 17 18  2  0
 18 19  1  0
 18 20  1  0
 21 20  1  1
 21 22  1  0
 22 23  1  0
 23 24  1  0
 24 25  1  0
 22 26  1  0
 26  8  1  0
 21 10  1  0
 19 11  1  0
 19 15  2  0
M  END
$$$$
