
     RDKit          3D

 26 29  0  0  0  0  0  0  0  0999 V2000
    4.2713   -0.1344    1.7444 C   0  0  0  0  0  0  0  0  0  0  0  0
    3.6490   -1.1429    0.7920 C   0  0  0  0  0  0  0  0  0  0  0  0
    3.4813   -0.6212   -0.5685 N   0  0  0  0  0  0  0  0  0  0  0  0
    4.6135   -0.7552   -1.4888 C   0  0  0  0  0  0  0  0  0  0  0  0
    5.4993    0.4809   -1.5395 C   0  0  0  0  0  0  0  0  0  0  0  0
    2.3758    0.1168   -1.0090 C   0  0  0  0  0  0  0  0  0  0  0  0
    2.3497    0.6044   -2.1433 O   0  0  0  0  0  0  0  0  0  0  0  0
    1.1730    0.2646   -0.0599 C   0  0  2  0  0  0  0  0  0  0  0  0
    0.2842   -0.9474   -0.1725 C   0  0  0  0  0  0  0  0  0  0  0  0
   -1.0568   -0.8358   -0.1352 C   0  0  0  0  0  0  0  0  0  0  0  0
   -1.9184   -2.0312   -0.2822 C   0  0  0  0  0  0  0  0  0  0  0  0
   -1.6393   -3.2366   -0.9360 C   0  0  0  0  0  0  0  0  0  0  0  0
   -2.5913   -4.2660   -0.9712 C   0  0  0  0  0  0  0  0  0  0  0  0
   -3.8496   -4.1329   -0.3612 C   0  0  0  0  0  0  0  0  0  0  0  0
   -4.1134   -2.9214    0.2815 C   0  0  0  0  0  0  0  0  0  0  0  0
   -5.2153   -2.4534    0.9647 N   0  0  0  0  0  0  0  0  0  0  0  0
   -4.9880   -1.1723    1.4219 C   0  0  0  0  0  0  0  0  0  0  0  0
   -3.7209   -0.8107    1.0267 C   0  0  0  0  0  0  0  0  0  0  0  0
   -3.1768   -1.9026    0.3184 C   0  0  0  0  0  0  0  0  0  0  0  0
   -2.9034    0.4233    1.2094 C   0  0  0  0  0  0  0  0  0  0  0  0
   -1.7828    0.5323    0.1004 C   0  0  1  0  0  0  0  0  0  0  0  0
   -0.8357    1.6530    0.4130 N   0  0  0  0  0  0  0  0  0  0  0  0
   -1.4565    2.9961    0.3454 C   0  0  0  0  0  0  0  0  0  0  0  0
   -0.6154    4.0119    1.1343 C   0  0  0  0  0  0  0  0  0  0  0  0
   -1.7340    3.5312   -1.0652 C   0  0  0  0  0  0  0  0  0  0  0  0
    0.3821    1.5376   -0.4199 C   0  0  0  0  0  0  0  0  0  0  0  0
  1  2  1  0
  2  3  1  0
  3  4  1  0
  4  5  1  0
  3  6  1  0
  6  7  2  0
  8  6  1  6
  8  9  1  0
  9 10  2  0
 10 11  1  0
 11 12  2  0
 12 13  1  0
 13 14  2  0
 14 15  1  0
 15 16  1  0
 16 17  1  0
 17 18  2  0
 18 19  1  0
 18 20  1  0
 21 20  1  1
 21 22  1  0
 22 23  1  0
 23 24  1  0
 23 25  1  0
 22 26  1  0
 26  8  1  0
 21 10  1  0
 19 11  1  0
 19 15  2  0
M  END
$$$$
