
     RDKit          3D

 26 30  0  0  0  0  0  0  0  0999 V2000
    5.4451    0.7029    0.6921 C   0  0  0  0  0  0  0  0  0  0  0  0
    4.3403    1.6479    0.2431 C   0  0  0  0  0  0  0  0  0  0  0  0
    3.1532    0.9527   -0.2625 N   0  0  0  0  0  0  0  0  0  0  0  0
    3.0602    0.7412   -1.7106 C   0  0  0  0  0  0  0  0  0  0  0  0
    3.7220   -0.5491   -2.1682 C   0  0  0  0  0  0  0  0  0  0  0  0
    2.2669    0.4233    0.6843 C   0  0  0  0  0  0  0  0  0  0  0  0
    2.4682    0.5770    1.8925 O   0  0  0  0  0  0  0  0  0  0  0  0
    1.0104   -0.3143    0.1787 C   0  0  2  0  0  0  0  0  0  0  0  0
   -0.0794    0.6971   -0.0908 C   0  0  0  0  0  0  0  0  0  0  0  0
   -1.3617    0.4853    0.2621 C   0  0  0  0  0  0  0  0  0  0  0  0
   -2.3995    1.5254    0.0498 C   0  0  0  0  0  0  0  0  0  0  0  0
   -2.2254    2.9001   -0.1561 C   0  0  0  0  0  0  0  0  0  0  0  0
   -3.3311    3.7486   -0.3129 C   0  0  0  0  0  0  0  0  0  0  0  0
   -4.6474    3.2645   -0.2647 C   0  0  0  0  0  0  0  0  0  0  0  0
   -4.8072    1.8940   -0.0514 C   0  0  0  0  0  0  0  0  0  0  0  0
   -5.9291    1.1008    0.0595 N   0  0  0  0  0  0  0  0  0  0  0  0
   -5.5692   -0.2135    0.2655 C   0  0  0  0  0  0  0  0  0  0  0  0
   -4.1952   -0.2656    0.2926 C   0  0  0  0  0  0  0  0  0  0  0  0
   -3.7188    1.0501    0.0983 C   0  0  0  0  0  0  0  0  0  0  0  0
   -3.2206   -1.3802    0.4498 C   0  0  0  0  0  0  0  0  0  0  0  0
   -1.8262   -0.8361    0.9408 C   0  0  1  0  0  0  0  0  0  0  0  0
   -0.8015   -1.9019    0.9931 N   0  0  0  0  0  0  0  0  0  0  0  0
    0.5582   -1.3742    1.2236 C   0  0  0  0  0  0  0  0  0  0  0  0
    1.3738   -2.6605    1.0952 C   0  0  0  0  0  0  0  0  0  0  0  0
    0.6595   -3.4595    0.0072 C   0  0  0  0  0  0  0  0  0  0  0  0
   -0.7067   -2.7955   -0.1566 C   0  0  0  0  0  0  0  0  0  0  0  0
  1  2  1  0
  2  3  1  0
  3  4  1  0
  4  5  1  0
  3  6  1  0
  6  7  2  0
  8  6  1  1
  8  9  1  0
  9 10  2  0
 10 11  1  0
 11 12  2  0
 12 13  1  0
 13 14  2  0
 14 15  1  0
 15 16  1  0
 16 17  1  0
 17 18  2  0
 18 19  1  0
 18 20  1  0
 21 20  1  6
 21 22  1  0
 22 23  1  0
 23 24  1  0
 24 25  1  0
 22 26  1  0
 23  8  1  0
 26 25  1  0
 21 10  1  0
 19 11  1  0
 19 15  2  0
M  END
$$$$
