
     RDKit          3D

 26 29  0  0  0  0  0  0  0  0999 V2000
    4.2588   -0.0704    1.4695 C   0  0  0  0  0  0  0  0  0  0  0  0
    3.5504   -1.1383    0.6515 C   0  0  0  0  0  0  0  0  0  0  0  0
    3.3134   -0.7346   -0.7385 N   0  0  0  0  0  0  0  0  0  0  0  0
    4.3812   -0.9899   -1.7086 C   0  0  0  0  0  0  0  0  0  0  0  0
    5.2970    0.2057   -1.9258 C   0  0  0  0  0  0  0  0  0  0  0  0
    2.2045   -0.0011   -1.1777 C   0  0  0  0  0  0  0  0  0  0  0  0
    2.1187    0.3780   -2.3500 O   0  0  0  0  0  0  0  0  0  0  0  0
    1.0698    0.2758   -0.1753 C   0  0  2  0  0  0  0  0  0  0  0  0
    0.1329   -0.9040   -0.1341 C   0  0  0  0  0  0  0  0  0  0  0  0
   -1.1980   -0.7344   -0.0304 C   0  0  0  0  0  0  0  0  0  0  0  0
   -2.1131   -1.8987   -0.0214 C   0  0  0  0  0  0  0  0  0  0  0  0
   -1.9243   -3.1654   -0.5848 C   0  0  0  0  0  0  0  0  0  0  0  0
   -2.9177   -4.1495   -0.4748 C   0  0  0  0  0  0  0  0  0  0  0  0
   -4.1290   -3.9089    0.1951 C   0  0  0  0  0  0  0  0  0  0  0  0
   -4.3026   -2.6377    0.7468 C   0  0  0  0  0  0  0  0  0  0  0  0
   -5.3390   -2.0646    1.4522 N   0  0  0  0  0  0  0  0  0  0  0  0
   -5.0307   -0.7620    1.7852 C   0  0  0  0  0  0  0  0  0  0  0  0
   -3.7774   -0.4931    1.2865 C   0  0  0  0  0  0  0  0  0  0  0  0
   -3.3248   -1.6635    0.6409 C   0  0  0  0  0  0  0  0  0  0  0  0
   -2.8963    0.7099    1.3169 C   0  0  0  0  0  0  0  0  0  0  0  0
   -1.8566    0.6752    0.1272 C   0  0  1  0  0  0  0  0  0  0  0  0
   -0.8634    1.7866    0.2848 N   0  0  0  0  0  0  0  0  0  0  0  0
   -1.4695    3.0896   -0.0424 C   0  0  0  0  0  0  0  0  0  0  0  0
   -0.6236    4.2295    0.4527 C   0  0  0  0  0  0  0  0  0  0  0  0
   -0.1741    5.2326   -0.3133 C   0  0  0  0  0  0  0  0  0  0  0  0
    0.3079    1.5474   -0.5943 C   0  0  0  0  0  0  0  0  0  0  0  0
  1  2  1  0
  2  3  1  0
  3  4  1  0
  4  5  1  0
  3  6  1  0
  6  7  2  0
  8  6  1  6
  8  9  1  0
  9 10  2  0
 10 11  1  0
 11 12  2  0
 12 13  1  0
 13 14  2  0
 14 15  1  0
 15 16  1  0
 16 17  1  0
 17 18  2  0
 18 19  1  0
 18 20  1  0
 21 20  1  1
 21 22  1  0
 22 23  1  0
 23 24  1  0
 24 25  2  0
 22 26  1  0
 26  8  1  0
 21 10  1  0
 19 11  1  0
 19 15  2  0
M  END
$$$$
