
     RDKit          3D

 23 26  0  0  0  0  0  0  0  0999 V2000
   -4.2963   -1.2490   -1.5927 C   0  0  0  0  0  0  0  0  0  0  0  0
   -3.9828    0.1422   -1.0643 C   0  0  0  0  0  0  0  0  0  0  0  0
   -3.4728    0.1002    0.3078 N   0  0  0  0  0  0  0  0  0  0  0  0
   -4.4687    0.1387    1.3807 C   0  0  0  0  0  0  0  0  0  0  0  0
   -4.7610    1.5635    1.8250 C   0  0  0  0  0  0  0  0  0  0  0  0
   -2.1261    0.0324    0.6712 C   0  0  0  0  0  0  0  0  0  0  0  0
   -1.7880    0.0414    1.8592 O   0  0  0  0  0  0  0  0  0  0  0  0
   -1.0678   -0.0036   -0.4458 C   0  0  2  0  0  0  0  0  0  0  0  0
    0.1269   -0.8365   -0.0479 C   0  0  0  0  0  0  0  0  0  0  0  0
    1.3222   -0.2745    0.2058 C   0  0  0  0  0  0  0  0  0  0  0  0
    2.5460   -1.0841    0.3825 C   0  0  0  0  0  0  0  0  0  0  0  0
    2.6851   -2.3675    0.9141 C   0  0  0  0  0  0  0  0  0  0  0  0
    3.9477   -2.9767    0.9643 C   0  0  0  0  0  0  0  0  0  0  0  0
    5.1045   -2.3352    0.4852 C   0  0  0  0  0  0  0  0  0  0  0  0
    4.9443   -1.0519   -0.0440 C   0  0  0  0  0  0  0  0  0  0  0  0
    5.8330   -0.1499   -0.5896 N   0  0  0  0  0  0  0  0  0  0  0  0
    5.1781    1.0037   -0.9720 C   0  0  0  0  0  0  0  0  0  0  0  0
    3.8464    0.8449   -0.6677 C   0  0  0  0  0  0  0  0  0  0  0  0
    3.7030   -0.4433   -0.0927 C   0  0  0  0  0  0  0  0  0  0  0  0
    2.6387    1.7184   -0.8132 C   0  0  0  0  0  0  0  0  0  0  0  0
    1.5424    1.2552    0.2106 C   0  0  1  0  0  0  0  0  0  0  0  0
    0.2999    2.0514    0.0931 N   0  0  0  0  0  0  0  0  0  0  0  0
   -0.6600    1.4330   -0.8337 C   0  0  0  0  0  0  0  0  0  0  0  0
  1  2  1  0
  2  3  1  0
  3  4  1  0
  4  5  1  0
  3  6  1  0
  6  7  2  0
  8  6  1  1
  8  9  1  0
  9 10  2  0
 10 11  1  0
 11 12  2  0
 12 13  1  0
 13 14  2  0
 14 15  1  0
 15 16  1  0
 16 17  1  0
 17 18  2  0
 18 19  1  0
 18 20  1  0
 21 20  1  6
 21 22  1  0
 22 23  1  0
 23  8  1  0
 21 10  1  0
 19 11  1  0
 19 15  2  0
M  END
$$$$
