
     RDKit          3D

 26 29  0  0  0  0  0  0  0  0999 V2000
    5.5280   -0.1065    1.2382 C   0  0  0  0  0  0  0  0  0  0  0  0
    4.8722    0.7640    0.1776 C   0  0  0  0  0  0  0  0  0  0  0  0
    3.6947    0.1147   -0.4009 N   0  0  0  0  0  0  0  0  0  0  0  0
    3.9136   -0.7002   -1.5981 C   0  0  0  0  0  0  0  0  0  0  0  0
    3.8189    0.1277   -2.8704 C   0  0  0  0  0  0  0  0  0  0  0  0
    2.4592    0.3346    0.2140 C   0  0  0  0  0  0  0  0  0  0  0  0
    2.3762    1.0193    1.2385 O   0  0  0  0  0  0  0  0  0  0  0  0
    1.2142   -0.3410   -0.3884 C   0  0  2  0  0  0  0  0  0  0  0  0
   -0.0065    0.5299   -0.2513 C   0  0  0  0  0  0  0  0  0  0  0  0
   -1.2085    0.0149    0.0705 C   0  0  0  0  0  0  0  0  0  0  0  0
   -2.4108    0.8796    0.2549 C   0  0  0  0  0  0  0  0  0  0  0  0
   -2.5094    2.2155    0.6995 C   0  0  0  0  0  0  0  0  0  0  0  0
   -1.3374    2.8392    1.0433 O   0  0  0  0  0  0  0  0  0  0  0  0
   -1.4191    4.0667    1.7521 C   0  0  0  0  0  0  0  0  0  0  0  0
   -3.7691    2.8379    0.7766 C   0  0  0  0  0  0  0  0  0  0  0  0
   -4.9603    2.1671    0.4497 C   0  0  0  0  0  0  0  0  0  0  0  0
   -4.8447    0.8386    0.0475 C   0  0  0  0  0  0  0  0  0  0  0  0
   -5.7861   -0.0973   -0.3232 N   0  0  0  0  0  0  0  0  0  0  0  0
   -5.1770   -1.2941   -0.6287 C   0  0  0  0  0  0  0  0  0  0  0  0
   -3.8231   -1.1218   -0.4586 C   0  0  0  0  0  0  0  0  0  0  0  0
   -3.6129    0.2139   -0.0454 C   0  0  0  0  0  0  0  0  0  0  0  0
   -2.6555   -2.0310   -0.6247 C   0  0  0  0  0  0  0  0  0  0  0  0
   -1.4280   -1.5238    0.2217 C   0  0  1  0  0  0  0  0  0  0  0  0
   -0.2262   -2.3487   -0.1223 N   0  0  0  0  0  0  0  0  0  0  0  0
   -0.3060   -3.6849    0.4751 C   0  0  0  0  0  0  0  0  0  0  0  0
    1.0118   -1.6842    0.3289 C   0  0  0  0  0  0  0  0  0  0  0  0
  1  2  1  0
  2  3  1  0
  3  4  1  0
  4  5  1  0
  3  6  1  0
  6  7  2  0
  8  6  1  1
  8  9  1  0
  9 10  2  0
 10 11  1  0
 11 12  2  0
 12 13  1  0
 13 14  1  0
 12 15  1  0
 15 16  2  0
 16 17  1  0
 17 18  1  0
 18 19  1  0
 19 20  2  0
 20 21  1  0
 20 22  1  0
 23 22  1  6
 23 24  1  0
 24 25  1  0
 24 26  1  0
 26  8  1  0
 23 10  1  0
 21 11  1  0
 21 17  2  0
M  END
$$$$
