
     RDKit          3D

 25 28  0  0  0  0  0  0  0  0999 V2000
   -4.8906    1.4282    0.1168 C   0  0  0  0  0  0  0  0  0  0  0  0
   -4.4827    0.6306    1.3475 C   0  0  0  0  0  0  0  0  0  0  0  0
   -3.3565   -0.2712    1.0834 N   0  0  0  0  0  0  0  0  0  0  0  0
   -3.6624   -1.7018    0.9710 C   0  0  0  0  0  0  0  0  0  0  0  0
   -4.5611   -2.0343   -0.2113 C   0  0  0  0  0  0  0  0  0  0  0  0
   -2.0756    0.3005    1.0850 C   0  0  0  0  0  0  0  0  0  0  0  0
   -1.9343    1.5077    1.3074 O   0  0  0  0  0  0  0  0  0  0  0  0
   -0.8559   -0.6104    0.8246 C   0  0  2  0  0  0  0  0  0  0  0  0
    0.4259    0.0247    1.3109 C   0  0  0  0  0  0  0  0  0  0  0  0
    1.3966    0.4150    0.4659 C   0  0  0  0  0  0  0  0  0  0  0  0
    2.7159    0.8694    0.9596 C   0  0  0  0  0  0  0  0  0  0  0  0
    3.0602    1.5305    2.1398 C   0  0  0  0  0  0  0  0  0  0  0  0
    2.1164    1.8824    3.0257 F   0  0  0  0  0  0  0  0  0  0  0  0
    4.3915    1.8458    2.4353 C   0  0  0  0  0  0  0  0  0  0  0  0
    5.4407    1.5053    1.5654 C   0  0  0  0  0  0  0  0  0  0  0  0
    5.0893    0.8366    0.3899 C   0  0  0  0  0  0  0  0  0  0  0  0
    5.8380    0.3562   -0.6640 N   0  0  0  0  0  0  0  0  0  0  0  0
    5.0215   -0.2395   -1.6034 C   0  0  0  0  0  0  0  0  0  0  0  0
    3.7267   -0.1391   -1.1513 C   0  0  0  0  0  0  0  0  0  0  0  0
    3.7710    0.5304    0.0959 C   0  0  0  0  0  0  0  0  0  0  0  0
    2.4045   -0.5641   -1.7080 C   0  0  0  0  0  0  0  0  0  0  0  0
    1.2546    0.3136   -1.0770 C   0  0  1  0  0  0  0  0  0  0  0  0
   -0.1254   -0.0204   -1.5051 N   0  0  0  0  0  0  0  0  0  0  0  0
   -0.2581   -0.3197   -2.9227 C   0  0  0  0  0  0  0  0  0  0  0  0
   -0.7608   -1.0341   -0.6579 C   0  0  0  0  0  0  0  0  0  0  0  0
  1  2  1  0
  2  3  1  0
  3  4  1  0
  4  5  1  0
  3  6  1  0
  6  7  2  0
  8  6  1  6
  8  9  1  0
  9 10  2  0
 10 11  1  0
 11 12  2  0
 12 13  1  0
 12 14  1  0
 14 15  2  0
 15 16  1  0
 16 17  1  0
 17 18  1  0
 18 19  2  0
 19 20  1  0
 19 21  1  0
 22 21  1  1
 22 23  1  0
 23 24  1  0
 23 25  1  0
 25  8  1  0
 22 10  1  0
 20 11  1  0
 20 16  2  0
M  END
$$$$
