
     RDKit          3D

 24 27  0  0  0  0  0  0  0  0999 V2000
   -5.0888    2.6064   -0.9449 C   0  0  0  0  0  0  0  0  0  0  0  0
   -4.3639    1.5225   -0.2996 N   0  0  0  0  0  0  0  0  0  0  0  0
   -5.0160    0.9307    0.8595 C   0  0  0  0  0  0  0  0  0  0  0  0
   -2.9889    1.4361   -0.5443 C   0  0  0  0  0  0  0  0  0  0  0  0
   -2.4421    2.1679   -1.3747 O   0  0  0  0  0  0  0  0  0  0  0  0
   -2.1863    0.3661    0.2203 C   0  0  2  0  0  0  0  0  0  0  0  0
   -0.7309    0.7454    0.3329 C   0  0  0  0  0  0  0  0  0  0  0  0
    0.2475   -0.1650    0.1720 C   0  0  0  0  0  0  0  0  0  0  0  0
    1.6734    0.2299    0.2427 C   0  0  0  0  0  0  0  0  0  0  0  0
    2.2471    1.4850    0.0092 C   0  0  0  0  0  0  0  0  0  0  0  0
    3.6343    1.6822    0.1161 C   0  0  0  0  0  0  0  0  0  0  0  0
    4.0340    2.9699   -0.1433 O   0  0  0  0  0  0  0  0  0  0  0  0
    5.4269    3.2414   -0.0661 C   0  0  0  0  0  0  0  0  0  0  0  0
    4.4951    0.6239    0.4589 C   0  0  0  0  0  0  0  0  0  0  0  0
    3.9070   -0.6269    0.6836 C   0  0  0  0  0  0  0  0  0  0  0  0
    4.4380   -1.8525    1.0260 N   0  0  0  0  0  0  0  0  0  0  0  0
    3.4379   -2.7953    1.1365 C   0  0  0  0  0  0  0  0  0  0  0  0
    2.2458   -2.1669    0.8610 C   0  0  0  0  0  0  0  0  0  0  0  0
    2.5404   -0.8161    0.5787 C   0  0  0  0  0  0  0  0  0  0  0  0
    0.8286   -2.6276    0.8270 C   0  0  0  0  0  0  0  0  0  0  0  0
   -0.0521   -1.6775   -0.0736 C   0  0  1  0  0  0  0  0  0  0  0  0
   -1.5001   -2.0259    0.0838 N   0  0  0  0  0  0  0  0  0  0  0  0
   -1.8130   -3.3161   -0.5379 C   0  0  0  0  0  0  0  0  0  0  0  0
   -2.3522   -0.9763   -0.5114 C   0  0  0  0  0  0  0  0  0  0  0  0
  1  2  1  0
  2  3  1  0
  2  4  1  0
  4  5  2  0
  6  4  1  6
  6  7  1  0
  7  8  2  0
  8  9  1  0
  9 10  2  0
 10 11  1  0
 11 12  1  0
 12 13  1  0
 11 14  2  0
 14 15  1  0
 15 16  1  0
 16 17  1  0
 17 18  2  0
 18 19  1  0
 18 20  1  0
 21 20  1  1
 21 22  1  0
 22 23  1  0
 22 24  1  0
 24  6  1  0
 21  8  1  0
 19  9  1  0
 19 15  2  0
M  END
$$$$
