
     RDKit          3D

 25 29  0  0  0  0  0  0  0  0999 V2000
    2.7894   -1.8146   -0.8284 O   0  0  0  0  0  0  0  0  0  0  0  0
    2.3553   -0.7649   -0.3419 C   0  0  0  0  0  0  0  0  0  0  0  0
    3.0127   -0.1451    0.9096 C   0  0  0  0  0  0  0  0  0  0  0  0
    4.2081   -0.9352    1.4269 C   0  0  0  0  0  0  0  0  0  0  0  0
    5.4030   -0.3855    0.6588 C   0  0  0  0  0  0  0  0  0  0  0  0
    4.8934    0.8634   -0.0428 C   0  0  0  0  0  0  0  0  0  0  0  0
    3.5982    1.1745    0.5798 N   0  0  0  0  0  0  0  0  0  0  0  0
    1.1937    0.0104   -0.9943 C   0  0  2  0  0  0  0  0  0  0  0  0
    0.2199    0.5733    0.0100 C   0  0  0  0  0  0  0  0  0  0  0  0
   -1.0542    0.1528    0.0885 C   0  0  0  0  0  0  0  0  0  0  0  0
   -2.0457    0.8551    0.9321 C   0  0  0  0  0  0  0  0  0  0  0  0
   -1.8563    1.5207    2.1434 C   0  0  0  0  0  0  0  0  0  0  0  0
   -2.9399    2.1473    2.7644 C   0  0  0  0  0  0  0  0  0  0  0  0
   -2.7346    2.7777    3.9302 F   0  0  0  0  0  0  0  0  0  0  0  0
   -4.2341    2.1483    2.2225 C   0  0  0  0  0  0  0  0  0  0  0  0
   -4.4026    1.4803    1.0076 C   0  0  0  0  0  0  0  0  0  0  0  0
   -5.4983    1.2800    0.1949 N   0  0  0  0  0  0  0  0  0  0  0  0
   -5.1445    0.5414   -0.9164 C   0  0  0  0  0  0  0  0  0  0  0  0
   -3.8017    0.2610   -0.8199 C   0  0  0  0  0  0  0  0  0  0  0  0
   -3.3397    0.8516    0.3818 C   0  0  0  0  0  0  0  0  0  0  0  0
   -2.8366   -0.4958   -1.6793 C   0  0  0  0  0  0  0  0  0  0  0  0
   -1.6274   -0.9820   -0.7967 C   0  0  1  0  0  0  0  0  0  0  0  0
   -0.6341   -1.6919   -1.6337 N   0  0  0  0  0  0  0  0  0  0  0  0
   -0.1259   -2.8867   -0.9593 C   0  0  0  0  0  0  0  0  0  0  0  0
    0.4616   -0.8104   -2.0843 C   0  0  0  0  0  0  0  0  0  0  0  0
  1  2  2  0
  2  3  1  0
  3  4  1  0
  4  5  1  0
  5  6  1  0
  6  7  1  0
  8  2  1  1
  8  9  1  0
  9 10  2  0
 10 11  1  0
 11 12  2  0
 12 13  1  0
 13 14  1  0
 13 15  2  0
 15 16  1  0
 16 17  1  0
 17 18  1  0
 18 19  2  0
 19 20  1  0
 19 21  1  0
 22 21  1  6
 22 23  1  0
 23 24  1  0
 23 25  1  0
  7  3  1  0
 25  8  1  0
 22 10  1  0
 20 11  1  0
 20 16  2  0
M  END
$$$$
