
     RDKit          3D

 24 28  0  0  0  0  0  0  0  0999 V2000
    4.1017   -0.7072   -2.2719 O   0  0  0  0  0  0  0  0  0  0  0  0
    3.2531   -0.4658   -1.4152 C   0  0  0  0  0  0  0  0  0  0  0  0
    3.5133    0.2873   -0.2826 N   0  0  0  0  0  0  0  0  0  0  0  0
    4.7862    0.8836   -0.0370 C   0  0  0  0  0  0  0  0  0  0  0  0
    5.7573    0.2359    0.9101 C   0  0  0  0  0  0  0  0  0  0  0  0
    5.0884    1.5239    1.2900 C   0  0  0  0  0  0  0  0  0  0  0  0
    1.8275   -1.0189   -1.5131 C   0  0  2  0  0  0  0  0  0  0  0  0
    0.8166    0.0902   -1.3699 C   0  0  0  0  0  0  0  0  0  0  0  0
   -0.2688   -0.0423   -0.5848 C   0  0  0  0  0  0  0  0  0  0  0  0
   -1.2048    1.0904   -0.3877 C   0  0  0  0  0  0  0  0  0  0  0  0
   -0.9560    2.4599   -0.5381 C   0  0  0  0  0  0  0  0  0  0  0  0
   -1.9641    3.4003   -0.2873 C   0  0  0  0  0  0  0  0  0  0  0  0
   -3.2493    3.0137    0.1236 C   0  0  0  0  0  0  0  0  0  0  0  0
   -3.4877    1.6424    0.2736 C   0  0  0  0  0  0  0  0  0  0  0  0
   -4.6003    0.9157    0.6491 N   0  0  0  0  0  0  0  0  0  0  0  0
   -5.8809    1.4880    0.9980 C   0  0  0  0  0  0  0  0  0  0  0  0
   -4.3209   -0.4337    0.6366 C   0  0  0  0  0  0  0  0  0  0  0  0
   -3.0102   -0.5808    0.2456 C   0  0  0  0  0  0  0  0  0  0  0  0
   -2.4904    0.7115    0.0226 C   0  0  0  0  0  0  0  0  0  0  0  0
   -2.1413   -1.7690    0.0217 C   0  0  0  0  0  0  0  0  0  0  0  0
   -0.6160   -1.3856    0.1362 C   0  0  1  0  0  0  0  0  0  0  0  0
    0.2325   -2.5269   -0.3267 N   0  0  0  0  0  0  0  0  0  0  0  0
    0.1366   -3.6826    0.5692 C   0  0  0  0  0  0  0  0  0  0  0  0
    1.6438   -2.1200   -0.4559 C   0  0  0  0  0  0  0  0  0  0  0  0
  1  2  2  0
  2  3  1  0
  3  4  1  0
  4  5  1  0
  5  6  1  0
  7  2  1  1
  7  8  1  0
  8  9  2  0
  9 10  1  0
 10 11  2  0
 11 12  1  0
 12 13  2  0
 13 14  1  0
 14 15  1  0
 15 16  1  0
 15 17  1  0
 17 18  2  0
 18 19  1  0
 18 20  1  0
 21 20  1  6
 21 22  1  0
 22 23  1  0
 22 24  1  0
  6  4  1  0
 24  7  1  0
 21  9  1  0
 19 10  1  0
 19 14  2  0
M  END
$$$$
