
     RDKit          3D

 25 28  0  0  0  0  0  0  0  0999 V2000
   -5.5228   -1.5511    0.6677 C   0  0  0  0  0  0  0  0  0  0  0  0
   -5.0481   -0.4355    1.4732 N   0  0  0  0  0  0  0  0  0  0  0  0
   -5.9759    0.0452    2.4861 C   0  0  0  0  0  0  0  0  0  0  0  0
   -3.6976   -0.1094    1.6374 C   0  0  0  0  0  0  0  0  0  0  0  0
   -3.3281    0.6295    2.5546 O   0  0  0  0  0  0  0  0  0  0  0  0
   -2.6896   -0.6747    0.6168 C   0  0  2  0  0  0  0  0  0  0  0  0
   -1.2824   -0.6707    1.1724 C   0  0  0  0  0  0  0  0  0  0  0  0
   -0.2267   -0.2391    0.4532 C   0  0  0  0  0  0  0  0  0  0  0  0
    1.1218   -0.1143    1.0627 C   0  0  0  0  0  0  0  0  0  0  0  0
    1.4539   -0.0766    2.4230 C   0  0  0  0  0  0  0  0  0  0  0  0
    2.7826    0.0928    2.8324 C   0  0  0  0  0  0  0  0  0  0  0  0
    3.8261    0.2376    1.9067 C   0  0  0  0  0  0  0  0  0  0  0  0
    3.4887    0.2041    0.5481 C   0  0  0  0  0  0  0  0  0  0  0  0
    4.2350    0.3270   -0.6103 N   0  0  0  0  0  0  0  0  0  0  0  0
    5.6843    0.4905   -0.6731 C   0  0  0  0  0  0  0  0  0  0  0  0
    6.1822    1.9101   -0.6046 C   0  0  0  0  0  0  0  0  0  0  0  0
    5.4606    3.0337   -0.4841 C   0  0  0  0  0  0  0  0  0  0  0  0
    3.4180    0.2184   -1.7188 C   0  0  0  0  0  0  0  0  0  0  0  0
    2.1319    0.0343   -1.2694 C   0  0  0  0  0  0  0  0  0  0  0  0
    2.1722    0.0309    0.1422 C   0  0  0  0  0  0  0  0  0  0  0  0
    0.8352   -0.1811   -1.9668 C   0  0  0  0  0  0  0  0  0  0  0  0
   -0.3734    0.2085   -1.0350 C   0  0  1  0  0  0  0  0  0  0  0  0
   -1.6991   -0.1196   -1.6471 N   0  0  0  0  0  0  0  0  0  0  0  0
   -1.7949   -1.4848   -2.1614 C   0  0  0  0  0  0  0  0  0  0  0  0
   -2.7750    0.1634   -0.6745 C   0  0  0  0  0  0  0  0  0  0  0  0
  1  2  1  0
  2  3  1  0
  2  4  1  0
  4  5  2  0
  6  4  1  1
  6  7  1  0
  7  8  2  0
  8  9  1  0
  9 10  2  0
 10 11  1  0
 11 12  2  0
 12 13  1  0
 13 14  1  0
 14 15  1  0
 15 16  1  0
 16 17  2  0
 14 18  1  0
 18 19  2  0
 19 20  1  0
 19 21  1  0
 22 21  1  6
 22 23  1  0
 23 24  1  0
 23 25  1  0
 25  6  1  0
 22  8  1  0
 20  9  1  0
 20 13  2  0
M  END
$$$$
