
     RDKit          3D

 26 30  0  0  0  0  0  0  0  0999 V2000
    2.1444    0.6458    1.5398 O   0  0  0  0  0  0  0  0  0  0  0  0
    2.0303    0.3074    0.3577 C   0  0  0  0  0  0  0  0  0  0  0  0
    3.2586   -0.1112   -0.4693 C   0  0  0  0  0  0  0  0  0  0  0  0
    4.4278    0.8477   -0.2124 C   0  0  0  0  0  0  0  0  0  0  0  0
    5.6872    0.3852   -0.9388 C   0  0  0  0  0  0  0  0  0  0  0  0
    5.9960   -1.0696   -0.5996 C   0  0  0  0  0  0  0  0  0  0  0  0
    4.7801   -1.9627   -0.8379 C   0  0  0  0  0  0  0  0  0  0  0  0
    3.6017   -1.4981   -0.1029 N   0  0  0  0  0  0  0  0  0  0  0  0
    0.6760    0.2545   -0.3653 C   0  0  2  0  0  0  0  0  0  0  0  0
   -0.3904    0.9857    0.4170 C   0  0  0  0  0  0  0  0  0  0  0  0
   -1.6154    0.4622    0.6234 C   0  0  0  0  0  0  0  0  0  0  0  0
   -2.5967    1.1278    1.5171 C   0  0  0  0  0  0  0  0  0  0  0  0
   -2.3612    2.1246    2.4735 C   0  0  0  0  0  0  0  0  0  0  0  0
   -3.4093    2.6112    3.2650 C   0  0  0  0  0  0  0  0  0  0  0  0
   -3.0784    3.8405    4.4304 Cl  0  0  0  0  0  0  0  0  0  0  0  0
   -4.7218    2.1285    3.1507 C   0  0  0  0  0  0  0  0  0  0  0  0
   -4.9392    1.1299    2.1989 C   0  0  0  0  0  0  0  0  0  0  0  0
   -6.0722    0.4358    1.8314 N   0  0  0  0  0  0  0  0  0  0  0  0
   -5.7804   -0.4536    0.8205 C   0  0  0  0  0  0  0  0  0  0  0  0
   -4.4397   -0.3338    0.5386 C   0  0  0  0  0  0  0  0  0  0  0  0
   -3.9111    0.6485    1.4039 C   0  0  0  0  0  0  0  0  0  0  0  0
   -3.5508   -0.9799   -0.4653 C   0  0  0  0  0  0  0  0  0  0  0  0
   -2.0431   -0.8975   -0.0146 C   0  0  1  0  0  0  0  0  0  0  0  0
   -1.1053   -1.3999   -1.0644 N   0  0  0  0  0  0  0  0  0  0  0  0
   -1.3186   -0.8124   -2.3865 C   0  0  0  0  0  0  0  0  0  0  0  0
    0.2897   -1.2159   -0.6153 C   0  0  0  0  0  0  0  0  0  0  0  0
  1  2  2  0
  2  3  1  0
  3  4  1  0
  4  5  1  0
  5  6  1  0
  6  7  1  0
  7  8  1  0
  9  2  1  1
  9 10  1  0
 10 11  2  0
 11 12  1  0
 12 13  2  0
 13 14  1  0
 14 15  1  0
 14 16  2  0
 16 17  1  0
 17 18  1  0
 18 19  1  0
 19 20  2  0
 20 21  1  0
 20 22  1  0
 23 22  1  6
 23 24  1  0
 24 25  1  0
 24 26  1  0
  8  3  1  0
 26  9  1  0
 23 11  1  0
 21 12  1  0
 21 17  2  0
M  END
$$$$
