
     RDKit          3D

 24 27  0  0  0  0  0  0  0  0999 V2000
    3.6838    1.4828   -2.8630 C   0  0  0  0  0  0  0  0  0  0  0  0
    3.6117    0.5328   -1.6698 C   0  0  0  0  0  0  0  0  0  0  0  0
    3.6709   -0.9197   -2.1299 C   0  0  0  0  0  0  0  0  0  0  0  0
    2.3984    0.7623   -0.9074 N   0  0  0  0  0  0  0  0  0  0  0  0
    2.2725    1.7862    0.0065 C   0  0  0  0  0  0  0  0  0  0  0  0
    3.2086    2.5071    0.3460 O   0  0  0  0  0  0  0  0  0  0  0  0
    0.8716    1.9420    0.6090 C   0  0  2  0  0  0  0  0  0  0  0  0
    0.6091    0.8249    1.5839 C   0  0  0  0  0  0  0  0  0  0  0  0
   -0.3099   -0.1231    1.3284 C   0  0  0  0  0  0  0  0  0  0  0  0
   -0.7107   -1.1042    2.3573 C   0  0  0  0  0  0  0  0  0  0  0  0
    0.0536   -1.6791    3.3742 C   0  0  0  0  0  0  0  0  0  0  0  0
   -0.5364   -2.5743    4.2786 C   0  0  0  0  0  0  0  0  0  0  0  0
   -1.8986   -2.9185    4.2051 C   0  0  0  0  0  0  0  0  0  0  0  0
   -2.6463   -2.3292    3.1824 C   0  0  0  0  0  0  0  0  0  0  0  0
   -3.9729   -2.4277    2.8203 N   0  0  0  0  0  0  0  0  0  0  0  0
   -4.2325   -1.6373    1.7181 C   0  0  0  0  0  0  0  0  0  0  0  0
   -3.0558   -1.0193    1.3642 C   0  0  0  0  0  0  0  0  0  0  0  0
   -2.0691   -1.4501    2.2841 C   0  0  0  0  0  0  0  0  0  0  0  0
   -2.6721   -0.0714    0.2709 C   0  0  0  0  0  0  0  0  0  0  0  0
   -1.1185   -0.1780    0.0016 C   0  0  1  0  0  0  0  0  0  0  0  0
   -0.5582    0.7280   -1.0455 N   0  0  0  0  0  0  0  0  0  0  0  0
   -1.4039    0.8107   -2.2411 C   0  0  0  0  0  0  0  0  0  0  0  0
   -0.6372    1.3107   -3.4616 C   0  0  0  0  0  0  0  0  0  0  0  0
   -0.2163    2.0496   -0.4823 C   0  0  0  0  0  0  0  0  0  0  0  0
  1  2  1  0
  2  3  1  0
  2  4  1  0
  4  5  1  0
  5  6  2  0
  7  5  1  6
  7  8  1  0
  8  9  2  0
  9 10  1  0
 10 11  2  0
 11 12  1  0
 12 13  2  0
 13 14  1  0
 14 15  1  0
 15 16  1  0
 16 17  2  0
 17 18  1  0
 17 19  1  0
 20 19  1  1
 20 21  1  0
 21 22  1  0
 22 23  1  0
 21 24  1  0
 24  7  1  0
 20  9  1  0
 18 10  1  0
 18 14  2  0
M  END
$$$$
