
     RDKit          3D

 24 28  0  0  0  0  0  0  0  0999 V2000
    2.4561    1.8432    0.7004 O   0  0  0  0  0  0  0  0  0  0  0  0
    2.6939    0.8168    0.0467 C   0  0  0  0  0  0  0  0  0  0  0  0
    4.1546    0.3238   -0.2430 C   0  0  0  0  0  0  0  0  0  0  0  0
    5.1911    1.3643   -0.7161 C   0  0  0  0  0  0  0  0  0  0  0  0
    6.1416    0.6776    0.2720 C   0  0  0  0  0  0  0  0  0  0  0  0
    4.9600    0.1793    1.0118 N   0  0  0  0  0  0  0  0  0  0  0  0
    1.5655   -0.0512   -0.5331 C   0  0  2  0  0  0  0  0  0  0  0  0
    0.2386    0.6680   -0.5057 C   0  0  0  0  0  0  0  0  0  0  0  0
   -0.8908    0.0701   -0.0766 C   0  0  0  0  0  0  0  0  0  0  0  0
   -2.1534    0.8346    0.0854 C   0  0  0  0  0  0  0  0  0  0  0  0
   -2.3203    2.2242    0.1686 C   0  0  0  0  0  0  0  0  0  0  0  0
   -3.5939    2.7688    0.3662 C   0  0  0  0  0  0  0  0  0  0  0  0
   -3.7673    4.1237    0.4533 O   0  0  0  0  0  0  0  0  0  0  0  0
   -4.7412    1.9784    0.4947 C   0  0  0  0  0  0  0  0  0  0  0  0
   -4.5570    0.5967    0.4214 C   0  0  0  0  0  0  0  0  0  0  0  0
   -5.4382   -0.4584    0.5179 N   0  0  0  0  0  0  0  0  0  0  0  0
   -4.7697   -1.6547    0.3728 C   0  0  0  0  0  0  0  0  0  0  0  0
   -3.4387   -1.3639    0.1841 C   0  0  0  0  0  0  0  0  0  0  0  0
   -3.3036    0.0412    0.2196 C   0  0  0  0  0  0  0  0  0  0  0  0
   -2.2387   -2.2076   -0.0676 C   0  0  0  0  0  0  0  0  0  0  0  0
   -0.9205   -1.4387    0.3274 C   0  0  1  0  0  0  0  0  0  0  0  0
    0.3173   -2.1932   -0.0416 N   0  0  0  0  0  0  0  0  0  0  0  0
    0.3326   -2.6747   -1.4224 C   0  0  0  0  0  0  0  0  0  0  0  0
    1.5078   -1.3738    0.2547 C   0  0  0  0  0  0  0  0  0  0  0  0
  1  2  2  0
  2  3  1  0
  3  4  1  0
  4  5  1  0
  5  6  1  0
  7  2  1  1
  7  8  1  0
  8  9  2  0
  9 10  1  0
 10 11  2  0
 11 12  1  0
 12 13  1  0
 12 14  2  0
 14 15  1  0
 15 16  1  0
 16 17  1  0
 17 18  2  0
 18 19  1  0
 18 20  1  0
 21 20  1  6
 21 22  1  0
 22 23  1  0
 22 24  1  0
  6  3  1  0
 24  7  1  0
 21  9  1  0
 19 10  1  0
 19 15  2  0
M  END
$$$$
