
     RDKit          3D

 26 29  0  0  0  0  0  0  0  0999 V2000
    5.6070    1.1776    0.5474 C   0  0  0  0  0  0  0  0  0  0  0  0
    5.1395    0.9070   -0.8760 C   0  0  0  0  0  0  0  0  0  0  0  0
    3.9526    0.0466   -0.9265 N   0  0  0  0  0  0  0  0  0  0  0  0
    4.1615   -1.3500   -1.3298 C   0  0  0  0  0  0  0  0  0  0  0  0
    4.9897   -2.1432   -0.3298 C   0  0  0  0  0  0  0  0  0  0  0  0
    2.7166    0.6533   -0.6805 C   0  0  0  0  0  0  0  0  0  0  0  0
    2.6519    1.8562   -0.4030 O   0  0  0  0  0  0  0  0  0  0  0  0
    1.4389   -0.2070   -0.7326 C   0  0  2  0  0  0  0  0  0  0  0  0
    0.2170    0.6490   -0.9679 C   0  0  0  0  0  0  0  0  0  0  0  0
   -0.9359    0.4334   -0.3075 C   0  0  0  0  0  0  0  0  0  0  0  0
   -2.1067    1.3175   -0.5139 C   0  0  0  0  0  0  0  0  0  0  0  0
   -2.1257    2.6443   -0.9534 C   0  0  0  0  0  0  0  0  0  0  0  0
   -3.3404    3.3199   -1.0782 C   0  0  0  0  0  0  0  0  0  0  0  0
   -3.3305    4.5926   -1.5013 F   0  0  0  0  0  0  0  0  0  0  0  0
   -4.5724    2.7261   -0.7761 C   0  0  0  0  0  0  0  0  0  0  0  0
   -4.5414    1.3996   -0.3313 C   0  0  0  0  0  0  0  0  0  0  0  0
   -5.5241    0.5092    0.0527 N   0  0  0  0  0  0  0  0  0  0  0  0
   -6.9401    0.7999    0.0730 C   0  0  0  0  0  0  0  0  0  0  0  0
   -4.9652   -0.6987    0.4110 C   0  0  0  0  0  0  0  0  0  0  0  0
   -3.6027   -0.5874    0.2562 C   0  0  0  0  0  0  0  0  0  0  0  0
   -3.3382    0.7191   -0.2058 C   0  0  0  0  0  0  0  0  0  0  0  0
   -2.4704   -1.5342    0.4642 C   0  0  0  0  0  0  0  0  0  0  0  0
   -1.1171   -0.7553    0.6870 C   0  0  1  0  0  0  0  0  0  0  0  0
    0.0313   -1.7152    0.6715 N   0  0  0  0  0  0  0  0  0  0  0  0
    0.0345   -2.5691    1.8631 C   0  0  0  0  0  0  0  0  0  0  0  0
    1.3141   -0.9883    0.5856 C   0  0  0  0  0  0  0  0  0  0  0  0
  1  2  1  0
  2  3  1  0
  3  4  1  0
  4  5  1  0
  3  6  1  0
  6  7  2  0
  8  6  1  1
  8  9  1  0
  9 10  2  0
 10 11  1  0
 11 12  2  0
 12 13  1  0
 13 14  1  0
 13 15  2  0
 15 16  1  0
 16 17  1  0
 17 18  1  0
 17 19  1  0
 19 20  2  0
 20 21  1  0
 20 22  1  0
 23 22  1  6
 23 24  1  0
 24 25  1  0
 24 26  1  0
 26  8  1  0
 23 10  1  0
 21 11  1  0
 21 16  2  0
M  END
$$$$
