
     RDKit          3D

 24 27  0  0  0  0  0  0  0  0999 V2000
    5.3102   -1.4171   -0.6370 C   0  0  0  0  0  0  0  0  0  0  0  0
    4.2460   -0.6598    0.0041 N   0  0  0  0  0  0  0  0  0  0  0  0
    4.6318    0.0834    1.1948 C   0  0  0  0  0  0  0  0  0  0  0  0
    2.9296   -1.0365   -0.2826 C   0  0  0  0  0  0  0  0  0  0  0  0
    2.6829   -1.8921   -1.1379 O   0  0  0  0  0  0  0  0  0  0  0  0
    1.7931   -0.3178    0.4694 C   0  0  2  0  0  0  0  0  0  0  0  0
    0.5454   -1.1666    0.5166 C   0  0  0  0  0  0  0  0  0  0  0  0
   -0.6765   -0.6384    0.3138 C   0  0  0  0  0  0  0  0  0  0  0  0
   -1.8844   -1.4963    0.3032 C   0  0  0  0  0  0  0  0  0  0  0  0
   -1.9759   -2.8679    0.0398 C   0  0  0  0  0  0  0  0  0  0  0  0
   -3.2214   -3.5087    0.0676 C   0  0  0  0  0  0  0  0  0  0  0  0
   -3.3061   -5.3683   -0.2939 Br  0  0  0  0  0  0  0  0  0  0  0  0
   -4.4147   -2.8236    0.3498 C   0  0  0  0  0  0  0  0  0  0  0  0
   -4.3024   -1.4541    0.6023 C   0  0  0  0  0  0  0  0  0  0  0  0
   -5.2379   -0.4873    0.9032 N   0  0  0  0  0  0  0  0  0  0  0  0
   -4.6250    0.7367    1.0679 C   0  0  0  0  0  0  0  0  0  0  0  0
   -3.2761    0.5545    0.8700 C   0  0  0  0  0  0  0  0  0  0  0  0
   -3.0758   -0.8116    0.5797 C   0  0  0  0  0  0  0  0  0  0  0  0
   -2.1027    1.4715    0.9208 C   0  0  0  0  0  0  0  0  0  0  0  0
   -0.8942    0.8933    0.0895 C   0  0  1  0  0  0  0  0  0  0  0  0
    0.3414    1.6923    0.3467 N   0  0  0  0  0  0  0  0  0  0  0  0
    0.2577    3.1034   -0.0574 C   0  0  0  0  0  0  0  0  0  0  0  0
   -0.0144    3.3850   -1.5322 C   0  0  0  0  0  0  0  0  0  0  0  0
    1.5244    1.0270   -0.2288 C   0  0  0  0  0  0  0  0  0  0  0  0
  1  2  1  0
  2  3  1  0
  2  4  1  0
  4  5  2  0
  6  4  1  6
  6  7  1  0
  7  8  2  0
  8  9  1  0
  9 10  2  0
 10 11  1  0
 11 12  1  0
 11 13  2  0
 13 14  1  0
 14 15  1  0
 15 16  1  0
 16 17  2  0
 17 18  1  0
 17 19  1  0
 20 19  1  1
 20 21  1  0
 21 22  1  0
 22 23  1  0
 21 24  1  0
 24  6  1  0
 20  8  1  0
 18  9  1  0
 18 14  2  0
M  END
$$$$
