
     RDKit          3D

 26 30  0  0  0  0  0  0  0  0999 V2000
   -2.7434   -2.0611   -1.6429 O   0  0  0  0  0  0  0  0  0  0  0  0
   -2.6218   -1.3384   -0.6489 C   0  0  0  0  0  0  0  0  0  0  0  0
   -3.7462   -0.3723   -0.2584 C   0  0  0  0  0  0  0  0  0  0  0  0
   -5.0706   -0.7790   -0.9236 C   0  0  0  0  0  0  0  0  0  0  0  0
   -6.2056   -0.4988   -0.0956 O   0  0  0  0  0  0  0  0  0  0  0  0
   -6.0631    0.7448    0.5629 C   0  0  0  0  0  0  0  0  0  0  0  0
   -5.0504    0.6647    1.6025 N   0  0  0  0  0  0  0  0  0  0  0  0
   -3.9729   -0.2666    1.2494 C   0  0  0  0  0  0  0  0  0  0  0  0
   -1.3191   -1.3281    0.1714 C   0  0  2  0  0  0  0  0  0  0  0  0
   -0.6085   -0.0017    0.0383 C   0  0  0  0  0  0  0  0  0  0  0  0
    0.7227    0.0828   -0.1621 C   0  0  0  0  0  0  0  0  0  0  0  0
    1.3820    1.3896   -0.4161 C   0  0  0  0  0  0  0  0  0  0  0  0
    0.7897    2.6010   -0.7998 C   0  0  0  0  0  0  0  0  0  0  0  0
    1.5714    3.7390   -1.0452 C   0  0  0  0  0  0  0  0  0  0  0  0
    2.9686    3.7139   -0.9273 C   0  0  0  0  0  0  0  0  0  0  0  0
    3.5468    2.5007   -0.5497 C   0  0  0  0  0  0  0  0  0  0  0  0
    4.8584    2.1280   -0.3523 N   0  0  0  0  0  0  0  0  0  0  0  0
    4.9362    0.8049    0.0371 C   0  0  0  0  0  0  0  0  0  0  0  0
    6.2364    0.1560    0.3325 C   0  0  0  0  0  0  0  0  0  0  0  0
    3.6444    0.3220    0.0749 C   0  0  0  0  0  0  0  0  0  0  0  0
    2.7802    1.3757   -0.2967 C   0  0  0  0  0  0  0  0  0  0  0  0
    3.0625   -0.9958    0.4535 C   0  0  0  0  0  0  0  0  0  0  0  0
    1.6355   -1.1851   -0.1850 C   0  0  1  0  0  0  0  0  0  0  0  0
    0.9583   -2.4291    0.2924 N   0  0  0  0  0  0  0  0  0  0  0  0
    0.9468   -2.5878    1.7453 C   0  0  0  0  0  0  0  0  0  0  0  0
   -0.4053   -2.4951   -0.2702 C   0  0  0  0  0  0  0  0  0  0  0  0
  1  2  2  0
  2  3  1  0
  3  4  1  0
  4  5  1  0
  5  6  1  0
  6  7  1  0
  7  8  1  0
  9  2  1  6
  9 10  1  0
 10 11  2  0
 11 12  1  0
 12 13  2  0
 13 14  1  0
 14 15  2  0
 15 16  1  0
 16 17  1  0
 17 18  1  0
 18 19  1  0
 18 20  2  0
 20 21  1  0
 20 22  1  0
 23 22  1  1
 23 24  1  0
 24 25  1  0
 24 26  1  0
  8  3  1  0
 26  9  1  0
 23 11  1  0
 21 12  1  0
 21 16  2  0
M  END
$$$$
