
     RDKit          3D

 24 27  0  0  0  0  0  0  0  0999 V2000
    4.1348    3.1072    1.1024 C   0  0  0  0  0  0  0  0  0  0  0  0
    4.2796    2.0301    0.3189 C   0  0  0  0  0  0  0  0  0  0  0  0
    4.4585    0.6308    0.8162 C   0  0  0  0  0  0  0  0  0  0  0  0
    3.2553   -0.0967    0.5030 N   0  0  0  0  0  0  0  0  0  0  0  0
    3.1357   -0.8659   -0.6353 C   0  0  0  0  0  0  0  0  0  0  0  0
    4.0693   -1.0688   -1.4085 O   0  0  0  0  0  0  0  0  0  0  0  0
    1.7504   -1.4783   -0.8712 C   0  0  2  0  0  0  0  0  0  0  0  0
    0.6959   -0.3957   -0.8920 C   0  0  0  0  0  0  0  0  0  0  0  0
   -0.4508   -0.5039   -0.1923 C   0  0  0  0  0  0  0  0  0  0  0  0
   -1.4011    0.6325   -0.0908 C   0  0  0  0  0  0  0  0  0  0  0  0
   -1.1783    1.9849   -0.3952 C   0  0  0  0  0  0  0  0  0  0  0  0
   -2.1622    2.9620   -0.1656 C   0  0  0  0  0  0  0  0  0  0  0  0
   -1.9385    4.2835   -0.5878 N   0  0  0  0  0  0  0  0  0  0  0  0
   -3.4402    2.5923    0.2890 C   0  0  0  0  0  0  0  0  0  0  0  0
   -3.6538    1.2456    0.5959 C   0  0  0  0  0  0  0  0  0  0  0  0
   -4.7540    0.5723    1.0816 N   0  0  0  0  0  0  0  0  0  0  0  0
   -4.4771   -0.7722    1.2019 C   0  0  0  0  0  0  0  0  0  0  0  0
   -3.1824   -0.9658    0.7800 C   0  0  0  0  0  0  0  0  0  0  0  0
   -2.6645    0.2950    0.4121 C   0  0  0  0  0  0  0  0  0  0  0  0
   -2.3413   -2.1813    0.6082 C   0  0  0  0  0  0  0  0  0  0  0  0
   -0.8111   -1.8066    0.5935 C   0  0  1  0  0  0  0  0  0  0  0  0
    0.0588   -2.9783    0.2676 N   0  0  0  0  0  0  0  0  0  0  0  0
   -0.3325   -3.6877   -0.9518 C   0  0  0  0  0  0  0  0  0  0  0  0
    1.4708   -2.5513    0.1982 C   0  0  0  0  0  0  0  0  0  0  0  0
  1  2  2  0
  2  3  1  0
  3  4  1  0
  4  5  1  0
  5  6  2  0
  7  5  1  1
  7  8  1  0
  8  9  2  0
  9 10  1  0
 10 11  2  0
 11 12  1  0
 12 13  1  0
 12 14  2  0
 14 15  1  0
 15 16  1  0
 16 17  1  0
 17 18  2  0
 18 19  1  0
 18 20  1  0
 21 20  1  6
 21 22  1  0
 22 23  1  0
 22 24  1  0
 24  7  1  0
 21  9  1  0
 19 10  1  0
 19 15  2  0
M  END
$$$$
