
     RDKit          3D

 28 31  0  0  0  0  0  0  0  0999 V2000
   -3.7590   -2.3465   -1.7909 C   0  0  0  0  0  0  0  0  0  0  0  0
   -4.8028   -1.2418   -1.7376 C   0  0  0  0  0  0  0  0  0  0  0  0
   -4.2686    0.0800   -1.1752 C   0  0  0  0  0  0  0  0  0  0  0  0
   -3.8858   -0.0017    0.2397 N   0  0  0  0  0  0  0  0  0  0  0  0
   -4.9773    0.0107    1.2200 C   0  0  0  0  0  0  0  0  0  0  0  0
   -5.2874    1.4300    1.6990 C   0  0  0  0  0  0  0  0  0  0  0  0
   -6.4175    1.4390    2.7152 C   0  0  0  0  0  0  0  0  0  0  0  0
   -2.5798   -0.0301    0.7375 C   0  0  0  0  0  0  0  0  0  0  0  0
   -2.3679   -0.1019    1.9524 O   0  0  0  0  0  0  0  0  0  0  0  0
   -1.4092    0.0689   -0.2570 C   0  0  2  0  0  0  0  0  0  0  0  0
   -0.1746   -0.6179    0.2826 C   0  0  0  0  0  0  0  0  0  0  0  0
    1.0469   -0.0505    0.2195 C   0  0  0  0  0  0  0  0  0  0  0  0
    2.2232   -0.6784    0.8733 C   0  0  0  0  0  0  0  0  0  0  0  0
    2.2339   -1.6697    1.8628 C   0  0  0  0  0  0  0  0  0  0  0  0
    3.4409   -2.1274    2.4063 C   0  0  0  0  0  0  0  0  0  0  0  0
    4.6779   -1.6107    1.9937 C   0  0  0  0  0  0  0  0  0  0  0  0
    4.6618   -0.6128    1.0114 C   0  0  0  0  0  0  0  0  0  0  0  0
    5.6605    0.1106    0.3880 N   0  0  0  0  0  0  0  0  0  0  0  0
    7.0833   -0.0090    0.6572 C   0  0  0  0  0  0  0  0  0  0  0  0
    7.7329   -1.1103   -0.1620 C   0  0  0  0  0  0  0  0  0  0  0  0
    5.1186    0.9836   -0.5320 C   0  0  0  0  0  0  0  0  0  0  0  0
    3.7535    0.8228   -0.5002 C   0  0  0  0  0  0  0  0  0  0  0  0
    3.4656   -0.1664    0.4656 C   0  0  0  0  0  0  0  0  0  0  0  0
    2.6414    1.4374   -1.2745 C   0  0  0  0  0  0  0  0  0  0  0  0
    1.2810    1.3209   -0.4894 C   0  0  1  0  0  0  0  0  0  0  0  0
    0.1130    1.8072   -1.2897 N   0  0  0  0  0  0  0  0  0  0  0  0
    0.0417    1.2457   -2.6378 C   0  0  0  0  0  0  0  0  0  0  0  0
   -1.1353    1.5593   -0.5390 C   0  0  0  0  0  0  0  0  0  0  0  0
  1  2  1  0
  2  3  1  0
  3  4  1  0
  4  5  1  0
  5  6  1  0
  6  7  1  0
  4  8  1  0
  8  9  2  0
 10  8  1  1
 10 11  1  0
 11 12  2  0
 12 13  1  0
 13 14  2  0
 14 15  1  0
 15 16  2  0
 16 17  1  0
 17 18  1  0
 18 19  1  0
 19 20  1  0
 18 21  1  0
 21 22  2  0
 22 23  1  0
 22 24  1  0
 25 24  1  6
 25 26  1  0
 26 27  1  0
 26 28  1  0
 28 10  1  0
 25 12  1  0
 23 13  1  0
 23 17  2  0
M  END
$$$$
