
     RDKit          3D

 27 31  0  0  0  0  0  0  0  0999 V2000
    3.3486   -0.7799   -2.7568 O   0  0  0  0  0  0  0  0  0  0  0  0
    2.7768   -0.9018   -1.6663 C   0  0  0  0  0  0  0  0  0  0  0  0
    3.4375   -0.5997   -0.4799 N   0  0  0  0  0  0  0  0  0  0  0  0
    2.7825   -0.1368    0.7501 C   0  0  0  0  0  0  0  0  0  0  0  0
    2.8066    1.4056    0.8231 C   0  0  0  0  0  0  0  0  0  0  0  0
    4.1704    1.9571    0.7009 N   0  0  0  0  0  0  0  0  0  0  0  0
    4.8317    1.4386   -0.5154 C   0  0  0  0  0  0  0  0  0  0  0  0
    4.8135   -0.1013   -0.5792 C   0  0  0  0  0  0  0  0  0  0  0  0
    1.3270   -1.4187   -1.6524 C   0  0  2  0  0  0  0  0  0  0  0  0
    0.3376   -0.3389   -1.3135 C   0  0  0  0  0  0  0  0  0  0  0  0
   -0.7169   -0.5860   -0.5140 C   0  0  0  0  0  0  0  0  0  0  0  0
   -1.6314    0.5071   -0.1089 C   0  0  0  0  0  0  0  0  0  0  0  0
   -1.3869    1.8856   -0.0789 C   0  0  0  0  0  0  0  0  0  0  0  0
   -2.3670    2.7913    0.3606 C   0  0  0  0  0  0  0  0  0  0  0  0
   -1.9624    4.1029    0.3315 O   0  0  0  0  0  0  0  0  0  0  0  0
   -2.9212    5.0812    0.7126 C   0  0  0  0  0  0  0  0  0  0  0  0
   -3.6291    2.3444    0.7891 C   0  0  0  0  0  0  0  0  0  0  0  0
   -3.8588    0.9637    0.7552 C   0  0  0  0  0  0  0  0  0  0  0  0
   -4.9558    0.1998    1.0939 N   0  0  0  0  0  0  0  0  0  0  0  0
   -4.6945   -1.1363    0.8773 C   0  0  0  0  0  0  0  0  0  0  0  0
   -3.4113   -1.2330    0.3920 C   0  0  0  0  0  0  0  0  0  0  0  0
   -2.8911    0.0756    0.3193 C   0  0  0  0  0  0  0  0  0  0  0  0
   -2.5695   -2.3802   -0.0479 C   0  0  0  0  0  0  0  0  0  0  0  0
   -1.0344   -2.0214    0.0232 C   0  0  1  0  0  0  0  0  0  0  0  0
   -0.2313   -3.0884   -0.6507 N   0  0  0  0  0  0  0  0  0  0  0  0
   -0.3032   -4.3676    0.0599 C   0  0  0  0  0  0  0  0  0  0  0  0
    1.1820   -2.6868   -0.7971 C   0  0  0  0  0  0  0  0  0  0  0  0
  1  2  2  0
  2  3  1  0
  3  4  1  0
  4  5  1  0
  5  6  1  0
  6  7  1  0
  7  8  1  0
  9  2  1  1
  9 10  1  0
 10 11  2  0
 11 12  1  0
 12 13  2  0
 13 14  1  0
 14 15  1  0
 15 16  1  0
 14 17  2  0
 17 18  1  0
 18 19  1  0
 19 20  1  0
 20 21  2  0
 21 22  1  0
 21 23  1  0
 24 23  1  6
 24 25  1  0
 25 26  1  0
 25 27  1  0
  8  3  1  0
 27  9  1  0
 24 11  1  0
 22 12  1  0
 22 18  2  0
M  END
$$$$
