
     RDKit          3D

 26 30  0  0  0  0  0  0  0  0999 V2000
   -1.8609    1.5011    1.4543 O   0  0  0  0  0  0  0  0  0  0  0  0
   -1.9018    0.3517    1.0245 C   0  0  0  0  0  0  0  0  0  0  0  0
   -3.0882   -0.3393    0.8527 N   0  0  0  0  0  0  0  0  0  0  0  0
   -4.3763    0.2942    1.0881 C   0  0  0  0  0  0  0  0  0  0  0  0
   -4.8284    1.1177   -0.1159 C   0  0  0  0  0  0  0  0  0  0  0  0
   -5.4065    0.0891   -1.0830 C   0  0  0  0  0  0  0  0  0  0  0  0
   -5.8886   -1.0765   -0.2192 C   0  0  0  0  0  0  0  0  0  0  0  0
   -5.4912   -0.7391    1.2172 C   0  0  0  0  0  0  0  0  0  0  0  0
   -0.6622   -0.4454    0.6006 C   0  0  2  0  0  0  0  0  0  0  0  0
    0.5713    0.0246    1.3216 C   0  0  0  0  0  0  0  0  0  0  0  0
    1.7482    0.1588    0.6821 C   0  0  0  0  0  0  0  0  0  0  0  0
    2.9427    0.6736    1.3905 C   0  0  0  0  0  0  0  0  0  0  0  0
    2.9996    1.4838    2.5287 C   0  0  0  0  0  0  0  0  0  0  0  0
    4.2363    1.8744    3.0475 C   0  0  0  0  0  0  0  0  0  0  0  0
    4.2605    2.6524    4.1396 F   0  0  0  0  0  0  0  0  0  0  0  0
    5.4555    1.4913    2.4733 C   0  0  0  0  0  0  0  0  0  0  0  0
    5.3809    0.6872    1.3346 C   0  0  0  0  0  0  0  0  0  0  0  0
    6.3473    0.1341    0.5224 N   0  0  0  0  0  0  0  0  0  0  0  0
    5.7604   -0.5947   -0.4907 C   0  0  0  0  0  0  0  0  0  0  0  0
    4.3972   -0.5089   -0.3277 C   0  0  0  0  0  0  0  0  0  0  0  0
    4.1610    0.2909    0.8103 C   0  0  0  0  0  0  0  0  0  0  0  0
    3.2394   -1.0779   -1.0745 C   0  0  0  0  0  0  0  0  0  0  0  0
    1.9319   -0.2322   -0.8195 C   0  0  1  0  0  0  0  0  0  0  0  0
    0.7452   -0.9439   -1.3926 N   0  0  0  0  0  0  0  0  0  0  0  0
    0.7718   -0.9412   -2.8583 C   0  0  0  0  0  0  0  0  0  0  0  0
   -0.5089   -0.3232   -0.9239 C   0  0  0  0  0  0  0  0  0  0  0  0
  1  2  2  0
  2  3  1  0
  3  4  1  0
  4  5  1  0
  5  6  1  0
  6  7  1  0
  7  8  1  0
  9  2  1  1
  9 10  1  0
 10 11  2  0
 11 12  1  0
 12 13  2  0
 13 14  1  0
 14 15  1  0
 14 16  2  0
 16 17  1  0
 17 18  1  0
 18 19  1  0
 19 20  2  0
 20 21  1  0
 20 22  1  0
 23 22  1  1
 23 24  1  0
 24 25  1  0
 24 26  1  0
  8  4  1  0
 26  9  1  0
 23 11  1  0
 21 12  1  0
 21 17  2  0
M  END
$$$$
