
     RDKit          3D

 23 26  0  0  0  0  0  0  0  0999 V2000
    5.0211    2.6740   -1.3634 C   0  0  0  0  0  0  0  0  0  0  0  0
    4.0218    1.6491   -1.5294 N   0  0  0  0  0  0  0  0  0  0  0  0
    2.9249    1.5905   -0.6850 C   0  0  0  0  0  0  0  0  0  0  0  0
    2.8060    2.3262    0.2905 O   0  0  0  0  0  0  0  0  0  0  0  0
    1.9172    0.4981   -1.0690 C   0  0  2  0  0  0  0  0  0  0  0  0
    0.5270    0.8207   -0.5997 C   0  0  0  0  0  0  0  0  0  0  0  0
   -0.2841   -0.1280   -0.0939 C   0  0  0  0  0  0  0  0  0  0  0  0
   -1.6451    0.1965    0.4256 C   0  0  0  0  0  0  0  0  0  0  0  0
   -2.1314    1.3806    1.0208 C   0  0  0  0  0  0  0  0  0  0  0  0
   -1.2304    2.4013    1.1846 O   0  0  0  0  0  0  0  0  0  0  0  0
   -1.6235    3.5240    1.9594 C   0  0  0  0  0  0  0  0  0  0  0  0
   -3.4776    1.4614    1.4226 C   0  0  0  0  0  0  0  0  0  0  0  0
   -4.3714    0.3863    1.2772 C   0  0  0  0  0  0  0  0  0  0  0  0
   -3.8629   -0.7845    0.7200 C   0  0  0  0  0  0  0  0  0  0  0  0
   -4.4431   -2.0060    0.4535 N   0  0  0  0  0  0  0  0  0  0  0  0
   -3.5180   -2.8656   -0.0959 C   0  0  0  0  0  0  0  0  0  0  0  0
   -2.3276   -2.1832   -0.1904 C   0  0  0  0  0  0  0  0  0  0  0  0
   -2.5442   -0.8788    0.3099 C   0  0  0  0  0  0  0  0  0  0  0  0
   -0.9768   -2.5635   -0.6883 C   0  0  0  0  0  0  0  0  0  0  0  0
    0.1312   -1.6332   -0.0656 C   0  0  1  0  0  0  0  0  0  0  0  0
    1.4384   -1.9178   -0.7387 N   0  0  0  0  0  0  0  0  0  0  0  0
    2.0055   -3.1929   -0.2897 C   0  0  0  0  0  0  0  0  0  0  0  0
    2.4080   -0.8352   -0.4864 C   0  0  0  0  0  0  0  0  0  0  0  0
  1  2  1  0
  2  3  1  0
  3  4  2  0
  5  3  1  1
  5  6  1  0
  6  7  2  0
  7  8  1  0
  8  9  2  0
  9 10  1  0
 10 11  1  0
  9 12  1  0
 12 13  2  0
 13 14  1  0
 14 15  1  0
 15 16  1  0
 16 17  2  0
 17 18  1  0
 17 19  1  0
 20 19  1  6
 20 21  1  0
 21 22  1  0
 21 23  1  0
 23  5  1  0
 20  7  1  0
 18  8  1  0
 18 14  2  0
M  END
$$$$
