
     RDKit          3D

 26 29  0  0  0  0  0  0  0  0999 V2000
    3.8496   -2.3500    0.1271 C   0  0  0  0  0  0  0  0  0  0  0  0
    3.5806   -1.3604    1.2510 C   0  0  0  0  0  0  0  0  0  0  0  0
    3.3878    0.0144    0.7746 N   0  0  0  0  0  0  0  0  0  0  0  0
    4.5580    0.6822    0.1942 C   0  0  0  0  0  0  0  0  0  0  0  0
    4.4991    0.7575   -1.3255 C   0  0  0  0  0  0  0  0  0  0  0  0
    2.2092    0.7680    0.8728 C   0  0  0  0  0  0  0  0  0  0  0  0
    2.1960    1.9408    0.4900 O   0  0  0  0  0  0  0  0  0  0  0  0
    0.9445    0.1053    1.4534 C   0  0  2  0  0  0  0  0  0  0  0  0
    0.3420   -0.8574    0.4693 C   0  0  0  0  0  0  0  0  0  0  0  0
   -0.8688   -0.6587   -0.0739 C   0  0  0  0  0  0  0  0  0  0  0  0
   -1.5110   -1.6985   -0.9113 C   0  0  0  0  0  0  0  0  0  0  0  0
   -0.9158   -2.6556   -1.7375 C   0  0  0  0  0  0  0  0  0  0  0  0
   -1.7083   -3.5769   -2.4382 C   0  0  0  0  0  0  0  0  0  0  0  0
   -3.1110   -3.5790   -2.3390 C   0  0  0  0  0  0  0  0  0  0  0  0
   -3.6880   -2.6135   -1.5104 C   0  0  0  0  0  0  0  0  0  0  0  0
   -4.9967   -2.3262   -1.1850 N   0  0  0  0  0  0  0  0  0  0  0  0
   -5.0541   -1.2561   -0.3154 C   0  0  0  0  0  0  0  0  0  0  0  0
   -3.7631   -0.8472   -0.0759 C   0  0  0  0  0  0  0  0  0  0  0  0
   -2.9120   -1.7002   -0.8189 C   0  0  0  0  0  0  0  0  0  0  0  0
   -3.1605    0.2457    0.7482 C   0  0  0  0  0  0  0  0  0  0  0  0
   -1.7298    0.5994    0.1956 C   0  0  1  0  0  0  0  0  0  0  0  0
   -1.1275    1.6522    1.0522 N   0  0  0  0  0  0  0  0  0  0  0  0
   -0.7554    2.8852    0.3201 C   0  0  0  0  0  0  0  0  0  0  0  0
   -0.1477    3.9759    1.2248 C   0  0  0  0  0  0  0  0  0  0  0  0
   -1.9932    3.5376   -0.3366 C   0  0  0  0  0  0  0  0  0  0  0  0
   -0.1127    1.1126    1.9765 C   0  0  0  0  0  0  0  0  0  0  0  0
  1  2  1  0
  2  3  1  0
  3  4  1  0
  4  5  1  0
  3  6  1  0
  6  7  2  0
  8  6  1  6
  8  9  1  0
  9 10  2  0
 10 11  1  0
 11 12  2  0
 12 13  1  0
 13 14  2  0
 14 15  1  0
 15 16  1  0
 16 17  1  0
 17 18  2  0
 18 19  1  0
 18 20  1  0
 21 20  1  1
 21 22  1  0
 22 23  1  0
 23 24  1  0
 23 25  1  0
 22 26  1  0
 26  8  1  0
 21 10  1  0
 19 11  1  0
 19 15  2  0
M  END
$$$$
