
     RDKit          3D

 26 29  0  0  0  0  0  0  0  0999 V2000
    5.0689   -0.3614    1.7588 C   0  0  0  0  0  0  0  0  0  0  0  0
    4.8914    0.5398    0.5447 C   0  0  0  0  0  0  0  0  0  0  0  0
    3.6471    0.2680   -0.1824 N   0  0  0  0  0  0  0  0  0  0  0  0
    3.7642   -0.4664   -1.4490 C   0  0  0  0  0  0  0  0  0  0  0  0
    4.2567   -1.8949   -1.2691 C   0  0  0  0  0  0  0  0  0  0  0  0
    2.4710    0.8151    0.3426 C   0  0  0  0  0  0  0  0  0  0  0  0
    2.4969    1.4714    1.3897 O   0  0  0  0  0  0  0  0  0  0  0  0
    1.1396    0.5628   -0.3922 C   0  0  2  0  0  0  0  0  0  0  0  0
    0.1024    1.5903   -0.0149 C   0  0  0  0  0  0  0  0  0  0  0  0
   -1.1850    1.2501    0.1797 C   0  0  0  0  0  0  0  0  0  0  0  0
   -2.1780    2.2661    0.5969 C   0  0  0  0  0  0  0  0  0  0  0  0
   -1.9675    3.4582    1.2987 C   0  0  0  0  0  0  0  0  0  0  0  0
   -3.0436    4.3021    1.6100 C   0  0  0  0  0  0  0  0  0  0  0  0
   -4.3617    3.9905    1.2374 C   0  0  0  0  0  0  0  0  0  0  0  0
   -4.5542    2.7941    0.5430 C   0  0  0  0  0  0  0  0  0  0  0  0
   -5.6823    2.1853    0.0367 N   0  0  0  0  0  0  0  0  0  0  0  0
   -5.3516    0.9943   -0.5752 C   0  0  0  0  0  0  0  0  0  0  0  0
   -3.9899    0.8350   -0.4611 C   0  0  0  0  0  0  0  0  0  0  0  0
   -3.4948    1.9582    0.2338 C   0  0  0  0  0  0  0  0  0  0  0  0
   -3.0397   -0.2222   -0.9123 C   0  0  0  0  0  0  0  0  0  0  0  0
   -1.7153   -0.2040   -0.0493 C   0  0  1  0  0  0  0  0  0  0  0  0
   -0.6833   -1.1189   -0.6420 N   0  0  0  0  0  0  0  0  0  0  0  0
   -1.0599   -2.5507   -0.6011 C   0  0  0  0  0  0  0  0  0  0  0  0
   -0.2427   -3.3471   -1.6308 C   0  0  0  0  0  0  0  0  0  0  0  0
   -0.9642   -3.2231    0.7743 C   0  0  0  0  0  0  0  0  0  0  0  0
    0.6427   -0.8507   -0.0475 C   0  0  0  0  0  0  0  0  0  0  0  0
  1  2  1  0
  2  3  1  0
  3  4  1  0
  4  5  1  0
  3  6  1  0
  6  7  2  0
  8  6  1  1
  8  9  1  0
  9 10  2  0
 10 11  1  0
 11 12  2  0
 12 13  1  0
 13 14  2  0
 14 15  1  0
 15 16  1  0
 16 17  1  0
 17 18  2  0
 18 19  1  0
 18 20  1  0
 21 20  1  6
 21 22  1  0
 22 23  1  0
 23 24  1  0
 23 25  1  0
 22 26  1  0
 26  8  1  0
 21 10  1  0
 19 11  1  0
 19 15  2  0
M  END
$$$$
