
     RDKit          3D

 26 29  0  0  0  0  0  0  0  0999 V2000
    5.7406   -0.5379   -1.1217 C   0  0  0  0  0  0  0  0  0  0  0  0
    4.7483   -1.5649   -0.5966 C   0  0  0  0  0  0  0  0  0  0  0  0
    3.5834   -0.9651    0.0590 N   0  0  0  0  0  0  0  0  0  0  0  0
    3.6304   -0.8136    1.5172 C   0  0  0  0  0  0  0  0  0  0  0  0
    4.2838    0.4856    1.9606 C   0  0  0  0  0  0  0  0  0  0  0  0
    2.5723   -0.4537   -0.7638 C   0  0  0  0  0  0  0  0  0  0  0  0
    2.6518   -0.5380   -1.9933 O   0  0  0  0  0  0  0  0  0  0  0  0
    1.3357    0.1739   -0.0958 C   0  0  2  0  0  0  0  0  0  0  0  0
    0.3539   -0.9061    0.2727 C   0  0  0  0  0  0  0  0  0  0  0  0
   -0.9715   -0.7308    0.1175 C   0  0  0  0  0  0  0  0  0  0  0  0
   -1.9148   -1.8278    0.4367 C   0  0  0  0  0  0  0  0  0  0  0  0
   -1.6804   -3.2080    0.4524 C   0  0  0  0  0  0  0  0  0  0  0  0
   -2.7082   -4.1041    0.7808 C   0  0  0  0  0  0  0  0  0  0  0  0
   -4.0016   -3.6616    1.1019 C   0  0  0  0  0  0  0  0  0  0  0  0
   -4.2202   -2.2827    1.0741 C   0  0  0  0  0  0  0  0  0  0  0  0
   -5.3379   -1.5155    1.3229 N   0  0  0  0  0  0  0  0  0  0  0  0
   -5.0471   -0.1777    1.1591 C   0  0  0  0  0  0  0  0  0  0  0  0
   -3.7224   -0.0834    0.7997 C   0  0  0  0  0  0  0  0  0  0  0  0
   -3.2082   -1.3949    0.7502 C   0  0  0  0  0  0  0  0  0  0  0  0
   -2.8274    1.0675    0.4889 C   0  0  0  0  0  0  0  0  0  0  0  0
   -1.5919    0.6219   -0.3820 C   0  0  1  0  0  0  0  0  0  0  0  0
   -0.5773    1.7232   -0.4944 N   0  0  0  0  0  0  0  0  0  0  0  0
   -0.9842    2.9379   -1.2427 C   0  0  0  0  0  0  0  0  0  0  0  0
   -1.8695    2.7248   -2.4741 C   0  0  0  0  0  0  0  0  0  0  0  0
   -1.5820    3.9919   -0.3023 C   0  0  0  0  0  0  0  0  0  0  0  0
    0.6844    1.1846   -1.0585 C   0  0  0  0  0  0  0  0  0  0  0  0
  1  2  1  0
  2  3  1  0
  3  4  1  0
  4  5  1  0
  3  6  1  0
  6  7  2  0
  8  6  1  6
  8  9  1  0
  9 10  2  0
 10 11  1  0
 11 12  2  0
 12 13  1  0
 13 14  2  0
 14 15  1  0
 15 16  1  0
 16 17  1  0
 17 18  2  0
 18 19  1  0
 18 20  1  0
 21 20  1  1
 21 22  1  0
 22 23  1  0
 23 24  1  0
 23 25  1  0
 22 26  1  0
 26  8  1  0
 21 10  1  0
 19 11  1  0
 19 15  2  0
M  END
$$$$
