
     RDKit          3D

 26 29  0  0  0  0  0  0  0  0999 V2000
    3.0498    0.2941    1.9352 C   0  0  0  0  0  0  0  0  0  0  0  0
    2.4734    1.0641    0.7556 C   0  0  0  0  0  0  0  0  0  0  0  0
    3.1239    0.7406   -0.5201 N   0  0  0  0  0  0  0  0  0  0  0  0
    4.5384    1.1122   -0.6443 C   0  0  0  0  0  0  0  0  0  0  0  0
    5.4680   -0.0900   -0.5522 C   0  0  0  0  0  0  0  0  0  0  0  0
    2.5048    0.2357   -1.6634 C   0  0  0  0  0  0  0  0  0  0  0  0
    3.1492    0.0978   -2.7126 O   0  0  0  0  0  0  0  0  0  0  0  0
    1.0220   -0.1804   -1.6732 C   0  0  2  0  0  0  0  0  0  0  0  0
    0.0874    0.9659   -1.4146 C   0  0  0  0  0  0  0  0  0  0  0  0
   -1.0203    0.8026   -0.6673 C   0  0  0  0  0  0  0  0  0  0  0  0
   -1.8818    1.9633   -0.3408 C   0  0  0  0  0  0  0  0  0  0  0  0
   -1.5476    3.3235   -0.3285 C   0  0  0  0  0  0  0  0  0  0  0  0
   -2.4982    4.2918    0.0262 C   0  0  0  0  0  0  0  0  0  0  0  0
   -3.8103    3.9439    0.3836 C   0  0  0  0  0  0  0  0  0  0  0  0
   -4.1267    2.5840    0.3700 C   0  0  0  0  0  0  0  0  0  0  0  0
   -5.2893    1.9009    0.6552 N   0  0  0  0  0  0  0  0  0  0  0  0
   -5.1007    0.5453    0.4903 C   0  0  0  0  0  0  0  0  0  0  0  0
   -3.7979    0.3547    0.0917 C   0  0  0  0  0  0  0  0  0  0  0  0
   -3.1916    1.6248    0.0185 C   0  0  0  0  0  0  0  0  0  0  0  0
   -3.0061   -0.8570   -0.2585 C   0  0  0  0  0  0  0  0  0  0  0  0
   -1.4545   -0.5984   -0.1110 C   0  0  1  0  0  0  0  0  0  0  0  0
   -0.6680   -1.7324   -0.7020 N   0  0  0  0  0  0  0  0  0  0  0  0
   -0.9351   -3.0535   -0.0885 C   0  0  0  0  0  0  0  0  0  0  0  0
   -0.3982   -4.1961   -0.9657 C   0  0  0  0  0  0  0  0  0  0  0  0
   -0.4305   -3.2222    1.3499 C   0  0  0  0  0  0  0  0  0  0  0  0
    0.7692   -1.4006   -0.7761 C   0  0  0  0  0  0  0  0  0  0  0  0
  1  2  1  0
  2  3  1  0
  3  4  1  0
  4  5  1  0
  3  6  1  0
  6  7  2  0
  8  6  1  1
  8  9  1  0
  9 10  2  0
 10 11  1  0
 11 12  2  0
 12 13  1  0
 13 14  2  0
 14 15  1  0
 15 16  1  0
 16 17  1  0
 17 18  2  0
 18 19  1  0
 18 20  1  0
 21 20  1  6
 21 22  1  0
 22 23  1  0
 23 24  1  0
 23 25  1  0
 22 26  1  0
 26  8  1  0
 21 10  1  0
 19 11  1  0
 19 15  2  0
M  END
$$$$
