
     RDKit          3D

 24 27  0  0  0  0  0  0  0  0999 V2000
    4.5672   -1.9916   -1.0375 C   0  0  0  0  0  0  0  0  0  0  0  0
    4.7638   -0.7926   -0.1125 C   0  0  0  0  0  0  0  0  0  0  0  0
    5.6887   -1.1489    1.0465 C   0  0  0  0  0  0  0  0  0  0  0  0
    3.4828   -0.3258    0.3972 N   0  0  0  0  0  0  0  0  0  0  0  0
    2.6577    0.4992   -0.3500 C   0  0  0  0  0  0  0  0  0  0  0  0
    2.9918    0.9695   -1.4334 O   0  0  0  0  0  0  0  0  0  0  0  0
    1.2927    0.7473    0.3026 C   0  0  2  0  0  0  0  0  0  0  0  0
    0.4061   -0.4516    0.0944 C   0  0  0  0  0  0  0  0  0  0  0  0
   -0.9066   -0.3060   -0.1621 C   0  0  0  0  0  0  0  0  0  0  0  0
   -1.7671   -1.4877   -0.4004 C   0  0  0  0  0  0  0  0  0  0  0  0
   -1.4094   -2.7459   -0.8974 C   0  0  0  0  0  0  0  0  0  0  0  0
   -2.3756   -3.7500   -1.0578 C   0  0  0  0  0  0  0  0  0  0  0  0
   -3.7259   -3.5384   -0.7327 C   0  0  0  0  0  0  0  0  0  0  0  0
   -4.0660   -2.2752   -0.2438 C   0  0  0  0  0  0  0  0  0  0  0  0
   -5.2643   -1.7280    0.1621 N   0  0  0  0  0  0  0  0  0  0  0  0
   -5.0829   -0.4221    0.5674 C   0  0  0  0  0  0  0  0  0  0  0  0
   -3.7479   -0.1249    0.4199 C   0  0  0  0  0  0  0  0  0  0  0  0
   -3.1158   -1.2814   -0.0839 C   0  0  0  0  0  0  0  0  0  0  0  0
   -2.9327    1.0958    0.6845 C   0  0  0  0  0  0  0  0  0  0  0  0
   -1.6113    1.0902   -0.1832 C   0  0  1  0  0  0  0  0  0  0  0  0
   -0.7195    2.2236    0.2358 N   0  0  0  0  0  0  0  0  0  0  0  0
   -1.2538    3.5183   -0.2338 C   0  0  0  0  0  0  0  0  0  0  0  0
   -0.5689    4.7179    0.4166 C   0  0  0  0  0  0  0  0  0  0  0  0
    0.6506    2.0136   -0.2882 C   0  0  0  0  0  0  0  0  0  0  0  0
  1  2  1  0
  2  3  1  0
  2  4  1  0
  4  5  1  0
  5  6  2  0
  7  5  1  6
  7  8  1  0
  8  9  2  0
  9 10  1  0
 10 11  2  0
 11 12  1  0
 12 13  2  0
 13 14  1  0
 14 15  1  0
 15 16  1  0
 16 17  2  0
 17 18  1  0
 17 19  1  0
 20 19  1  1
 20 21  1  0
 21 22  1  0
 22 23  1  0
 21 24  1  0
 24  7  1  0
 20  9  1  0
 18 10  1  0
 18 14  2  0
M  END
$$$$
