
     RDKit          3D

 24 27  0  0  0  0  0  0  0  0999 V2000
    4.3606   -2.2124   -0.6212 C   0  0  0  0  0  0  0  0  0  0  0  0
    4.2974   -0.8946    0.1438 C   0  0  0  0  0  0  0  0  0  0  0  0
    5.0336    0.2080   -0.6132 C   0  0  0  0  0  0  0  0  0  0  0  0
    2.9112   -0.5163    0.3718 N   0  0  0  0  0  0  0  0  0  0  0  0
    2.5327    0.2944    1.4248 C   0  0  0  0  0  0  0  0  0  0  0  0
    3.3254    0.6945    2.2746 O   0  0  0  0  0  0  0  0  0  0  0  0
    1.0564    0.7112    1.4382 C   0  0  2  0  0  0  0  0  0  0  0  0
    0.1574   -0.4753    1.2226 C   0  0  0  0  0  0  0  0  0  0  0  0
   -0.8964   -0.4140    0.3895 C   0  0  0  0  0  0  0  0  0  0  0  0
   -1.7216   -1.6175    0.1327 C   0  0  0  0  0  0  0  0  0  0  0  0
   -1.3601   -2.9657    0.2416 C   0  0  0  0  0  0  0  0  0  0  0  0
   -2.2822   -3.9791   -0.0584 C   0  0  0  0  0  0  0  0  0  0  0  0
   -3.5908   -3.6894   -0.4777 C   0  0  0  0  0  0  0  0  0  0  0  0
   -3.9341   -2.3400   -0.5833 C   0  0  0  0  0  0  0  0  0  0  0  0
   -5.1009   -1.7057   -0.9527 N   0  0  0  0  0  0  0  0  0  0  0  0
   -4.9419   -0.3372   -0.8934 C   0  0  0  0  0  0  0  0  0  0  0  0
   -3.6544   -0.0881   -0.4783 C   0  0  0  0  0  0  0  0  0  0  0  0
   -3.0274   -1.3365   -0.2869 C   0  0  0  0  0  0  0  0  0  0  0  0
   -2.8896    1.1623   -0.2080 C   0  0  0  0  0  0  0  0  0  0  0  0
   -1.3323    0.9119   -0.3175 C   0  0  1  0  0  0  0  0  0  0  0  0
   -0.5813    2.1205    0.1619 N   0  0  0  0  0  0  0  0  0  0  0  0
   -0.7289    3.2527   -0.7752 C   0  0  0  0  0  0  0  0  0  0  0  0
   -0.1980    4.5738   -0.2226 C   0  0  0  0  0  0  0  0  0  0  0  0
    0.8461    1.7999    0.3732 C   0  0  0  0  0  0  0  0  0  0  0  0
  1  2  1  0
  2  3  1  0
  2  4  1  0
  4  5  1  0
  5  6  2  0
  7  5  1  6
  7  8  1  0
  8  9  2  0
  9 10  1  0
 10 11  2  0
 11 12  1  0
 12 13  2  0
 13 14  1  0
 14 15  1  0
 15 16  1  0
 16 17  2  0
 17 18  1  0
 17 19  1  0
 20 19  1  1
 20 21  1  0
 21 22  1  0
 22 23  1  0
 21 24  1  0
 24  7  1  0
 20  9  1  0
 18 10  1  0
 18 14  2  0
M  END
$$$$
