
     RDKit          3D

 24 27  0  0  0  0  0  0  0  0999 V2000
   -5.4130   -1.0821   -0.3565 C   0  0  0  0  0  0  0  0  0  0  0  0
   -4.4445   -0.1032   -1.0037 C   0  0  0  0  0  0  0  0  0  0  0  0
   -3.2564    0.1715   -0.1897 N   0  0  0  0  0  0  0  0  0  0  0  0
   -3.3112    1.3275    0.7114 C   0  0  0  0  0  0  0  0  0  0  0  0
   -3.8875    0.9937    2.0785 C   0  0  0  0  0  0  0  0  0  0  0  0
   -2.2310   -0.7855   -0.2102 C   0  0  0  0  0  0  0  0  0  0  0  0
   -2.3520   -1.8147   -0.8801 O   0  0  0  0  0  0  0  0  0  0  0  0
   -0.9450   -0.5000    0.5925 C   0  0  2  0  0  0  0  0  0  0  0  0
   -0.0324    0.4374   -0.1604 C   0  0  0  0  0  0  0  0  0  0  0  0
    1.2391    0.1155   -0.4525 C   0  0  0  0  0  0  0  0  0  0  0  0
    2.2015    1.1314   -0.9290 C   0  0  0  0  0  0  0  0  0  0  0  0
    1.9900    2.2305   -1.7624 C   0  0  0  0  0  0  0  0  0  0  0  0
    3.0484    3.1028   -2.0573 C   0  0  0  0  0  0  0  0  0  0  0  0
    4.3398    2.9152   -1.5295 C   0  0  0  0  0  0  0  0  0  0  0  0
    4.5293    1.8108   -0.6947 C   0  0  0  0  0  0  0  0  0  0  0  0
    5.6290    1.3289   -0.0165 N   0  0  0  0  0  0  0  0  0  0  0  0
    5.3035    0.1824    0.6814 C   0  0  0  0  0  0  0  0  0  0  0  0
    3.9736   -0.0807    0.4505 C   0  0  0  0  0  0  0  0  0  0  0  0
    3.4920    0.9435   -0.4046 C   0  0  0  0  0  0  0  0  0  0  0  0
    3.0365   -1.1677    0.8858 C   0  0  0  0  0  0  0  0  0  0  0  0
    1.8563   -1.2687   -0.1503 C   0  0  1  0  0  0  0  0  0  0  0  0
    0.8858   -2.3184    0.2337 N   0  0  0  0  0  0  0  0  0  0  0  0
    0.3870   -3.0163   -0.9548 C   0  0  0  0  0  0  0  0  0  0  0  0
   -0.2245   -1.7954    1.0525 C   0  0  0  0  0  0  0  0  0  0  0  0
  1  2  1  0
  2  3  1  0
  3  4  1  0
  4  5  1  0
  3  6  1  0
  6  7  2  0
  8  6  1  6
  8  9  1  0
  9 10  2  0
 10 11  1  0
 11 12  2  0
 12 13  1  0
 13 14  2  0
 14 15  1  0
 15 16  1  0
 16 17  1  0
 17 18  2  0
 18 19  1  0
 18 20  1  0
 21 20  1  1
 21 22  1  0
 22 23  1  0
 22 24  1  0
 24  8  1  0
 21 10  1  0
 19 11  1  0
 19 15  2  0
M  END
$$$$
