
     RDKit          3D

 24 27  0  0  0  0  0  0  0  0999 V2000
   -5.1300    1.9612   -0.1650 C   0  0  0  0  0  0  0  0  0  0  0  0
   -4.6630    0.7114   -0.8976 C   0  0  0  0  0  0  0  0  0  0  0  0
   -3.5556    0.0445   -0.2028 N   0  0  0  0  0  0  0  0  0  0  0  0
   -3.9185   -0.9323    0.8315 C   0  0  0  0  0  0  0  0  0  0  0  0
   -4.4649   -2.2289    0.2487 C   0  0  0  0  0  0  0  0  0  0  0  0
   -2.2675    0.5308   -0.4547 C   0  0  0  0  0  0  0  0  0  0  0  0
   -2.0906    1.4406   -1.2726 O   0  0  0  0  0  0  0  0  0  0  0  0
   -1.0711   -0.0888    0.2985 C   0  0  2  0  0  0  0  0  0  0  0  0
    0.1318    0.8318    0.2537 C   0  0  0  0  0  0  0  0  0  0  0  0
    1.3722    0.3875   -0.0318 C   0  0  0  0  0  0  0  0  0  0  0  0
    2.5058    1.3295   -0.2089 C   0  0  0  0  0  0  0  0  0  0  0  0
    2.4593    2.7117   -0.4345 C   0  0  0  0  0  0  0  0  0  0  0  0
    3.6366    3.4497   -0.6246 C   0  0  0  0  0  0  0  0  0  0  0  0
    4.9009    2.8418   -0.6067 C   0  0  0  0  0  0  0  0  0  0  0  0
    4.9335    1.4631   -0.3891 C   0  0  0  0  0  0  0  0  0  0  0  0
    5.9759    0.5638   -0.3211 N   0  0  0  0  0  0  0  0  0  0  0  0
    5.4993   -0.7055   -0.0749 C   0  0  0  0  0  0  0  0  0  0  0  0
    4.1292   -0.6216    0.0111 C   0  0  0  0  0  0  0  0  0  0  0  0
    3.7742    0.7302   -0.1919 C   0  0  0  0  0  0  0  0  0  0  0  0
    3.0642   -1.6209    0.2975 C   0  0  0  0  0  0  0  0  0  0  0  0
    1.6710   -1.1283   -0.2506 C   0  0  1  0  0  0  0  0  0  0  0  0
    0.5478   -2.0346    0.1433 N   0  0  0  0  0  0  0  0  0  0  0  0
    0.5073   -2.3424    1.5725 C   0  0  0  0  0  0  0  0  0  0  0  0
   -0.7341   -1.4604   -0.3164 C   0  0  0  0  0  0  0  0  0  0  0  0
  1  2  1  0
  2  3  1  0
  3  4  1  0
  4  5  1  0
  3  6  1  0
  6  7  2  0
  8  6  1  6
  8  9  1  0
  9 10  2  0
 10 11  1  0
 11 12  2  0
 12 13  1  0
 13 14  2  0
 14 15  1  0
 15 16  1  0
 16 17  1  0
 17 18  2  0
 18 19  1  0
 18 20  1  0
 21 20  1  1
 21 22  1  0
 22 23  1  0
 22 24  1  0
 24  8  1  0
 21 10  1  0
 19 11  1  0
 19 15  2  0
M  END
$$$$
