
     RDKit          3D

 24 27  0  0  0  0  0  0  0  0999 V2000
    4.9083   -1.9207    0.8777 C   0  0  0  0  0  0  0  0  0  0  0  0
    4.3990   -1.5823   -0.5157 C   0  0  0  0  0  0  0  0  0  0  0  0
    3.4184   -0.4925   -0.5346 N   0  0  0  0  0  0  0  0  0  0  0  0
    3.9238    0.8653   -0.7642 C   0  0  0  0  0  0  0  0  0  0  0  0
    4.3816    1.5572    0.5099 C   0  0  0  0  0  0  0  0  0  0  0  0
    2.1044   -0.8068   -0.1642 C   0  0  0  0  0  0  0  0  0  0  0  0
    1.8042   -1.9555    0.1758 O   0  0  0  0  0  0  0  0  0  0  0  0
    1.0441    0.3115   -0.2129 C   0  0  2  0  0  0  0  0  0  0  0  0
   -0.1120    0.0440    0.7184 C   0  0  0  0  0  0  0  0  0  0  0  0
   -1.3718   -0.0824    0.2676 C   0  0  0  0  0  0  0  0  0  0  0  0
   -2.5263   -0.0920    1.1901 C   0  0  0  0  0  0  0  0  0  0  0  0
   -2.6215   -0.6119    2.4816 C   0  0  0  0  0  0  0  0  0  0  0  0
   -3.8150   -0.4795    3.2068 C   0  0  0  0  0  0  0  0  0  0  0  0
   -4.9418    0.1763    2.6764 C   0  0  0  0  0  0  0  0  0  0  0  0
   -4.8246    0.6918    1.3828 C   0  0  0  0  0  0  0  0  0  0  0  0
   -5.6996    1.3775    0.5670 N   0  0  0  0  0  0  0  0  0  0  0  0
   -5.1043    1.6697   -0.6444 C   0  0  0  0  0  0  0  0  0  0  0  0
   -3.8256    1.1649   -0.6108 C   0  0  0  0  0  0  0  0  0  0  0  0
   -3.6527    0.5601    0.6603 C   0  0  0  0  0  0  0  0  0  0  0  0
   -2.6951    1.1295   -1.5944 C   0  0  0  0  0  0  0  0  0  0  0  0
   -1.7394   -0.0685   -1.2356 C   0  0  1  0  0  0  0  0  0  0  0  0
   -0.5865   -0.1321   -2.1683 N   0  0  0  0  0  0  0  0  0  0  0  0
   -0.2449   -1.5261   -2.4674 C   0  0  0  0  0  0  0  0  0  0  0  0
    0.5824    0.6088   -1.6593 C   0  0  0  0  0  0  0  0  0  0  0  0
  1  2  1  0
  2  3  1  0
  3  4  1  0
  4  5  1  0
  3  6  1  0
  6  7  2  0
  8  6  1  6
  8  9  1  0
  9 10  2  0
 10 11  1  0
 11 12  2  0
 12 13  1  0
 13 14  2  0
 14 15  1  0
 15 16  1  0
 16 17  1  0
 17 18  2  0
 18 19  1  0
 18 20  1  0
 21 20  1  6
 21 22  1  0
 22 23  1  0
 22 24  1  0
 24  8  1  0
 21 10  1  0
 19 11  1  0
 19 15  2  0
M  END
$$$$
