
     RDKit          3D

 24 27  0  0  0  0  0  0  0  0999 V2000
   -5.7061    0.1833    0.2623 C   0  0  0  0  0  0  0  0  0  0  0  0
   -4.5528    1.1658    0.1172 C   0  0  0  0  0  0  0  0  0  0  0  0
   -3.2736    0.5813    0.5352 N   0  0  0  0  0  0  0  0  0  0  0  0
   -2.9297    0.6913    1.9591 C   0  0  0  0  0  0  0  0  0  0  0  0
   -2.5414    2.1069    2.3656 C   0  0  0  0  0  0  0  0  0  0  0  0
   -2.5861   -0.1827   -0.4176 C   0  0  0  0  0  0  0  0  0  0  0  0
   -3.0222   -0.2903   -1.5683 O   0  0  0  0  0  0  0  0  0  0  0  0
   -1.2723   -0.8805   -0.0106 C   0  0  2  0  0  0  0  0  0  0  0  0
   -0.1396    0.1176    0.0734 C   0  0  0  0  0  0  0  0  0  0  0  0
    1.0882   -0.1405   -0.4214 C   0  0  0  0  0  0  0  0  0  0  0  0
    2.1476    0.9003   -0.4337 C   0  0  0  0  0  0  0  0  0  0  0  0
    2.0062    2.2873   -0.2907 C   0  0  0  0  0  0  0  0  0  0  0  0
    3.1202    3.1358   -0.3676 C   0  0  0  0  0  0  0  0  0  0  0  0
    4.4124    2.6400   -0.5969 C   0  0  0  0  0  0  0  0  0  0  0  0
    4.5394    1.2576   -0.7443 C   0  0  0  0  0  0  0  0  0  0  0  0
    5.6316    0.4514   -0.9839 N   0  0  0  0  0  0  0  0  0  0  0  0
    5.2486   -0.8711   -1.0393 C   0  0  0  0  0  0  0  0  0  0  0  0
    3.8888   -0.9152   -0.8387 C   0  0  0  0  0  0  0  0  0  0  0  0
    3.4437    0.4134   -0.6612 C   0  0  0  0  0  0  0  0  0  0  0  0
    2.9094   -2.0324   -0.7480 C   0  0  0  0  0  0  0  0  0  0  0  0
    1.4502   -1.5225   -1.0541 C   0  0  1  0  0  0  0  0  0  0  0  0
    0.4157   -2.5802   -0.8454 N   0  0  0  0  0  0  0  0  0  0  0  0
    0.5224   -3.2815    0.4319 C   0  0  0  0  0  0  0  0  0  0  0  0
   -0.9304   -1.9940   -1.0306 C   0  0  0  0  0  0  0  0  0  0  0  0
  1  2  1  0
  2  3  1  0
  3  4  1  0
  4  5  1  0
  3  6  1  0
  6  7  2  0
  8  6  1  6
  8  9  1  0
  9 10  2  0
 10 11  1  0
 11 12  2  0
 12 13  1  0
 13 14  2  0
 14 15  1  0
 15 16  1  0
 16 17  1  0
 17 18  2  0
 18 19  1  0
 18 20  1  0
 21 20  1  1
 21 22  1  0
 22 23  1  0
 22 24  1  0
 24  8  1  0
 21 10  1  0
 19 11  1  0
 19 15  2  0
M  END
$$$$
