
     RDKit          3D

 26 29  0  0  0  0  0  0  0  0999 V2000
    6.0168   -1.6955   -1.1110 C   0  0  0  0  0  0  0  0  0  0  0  0
    4.7390   -1.4249   -1.4097 C   0  0  0  0  0  0  0  0  0  0  0  0
    4.2134   -0.0688   -1.7732 C   0  0  0  0  0  0  0  0  0  0  0  0
    3.1891    0.3458   -0.8161 N   0  0  0  0  0  0  0  0  0  0  0  0
    3.6415    1.0719    0.3703 C   0  0  0  0  0  0  0  0  0  0  0  0
    4.0139    0.1076    1.4547 C   0  0  0  0  0  0  0  0  0  0  0  0
    5.2056    0.0810    2.0670 C   0  0  0  0  0  0  0  0  0  0  0  0
    1.8745   -0.0566   -1.0576 C   0  0  0  0  0  0  0  0  0  0  0  0
    1.5850   -0.7157   -2.0621 O   0  0  0  0  0  0  0  0  0  0  0  0
    0.7778    0.3763   -0.0672 C   0  0  2  0  0  0  0  0  0  0  0  0
   -0.3174   -0.6569    0.0122 C   0  0  0  0  0  0  0  0  0  0  0  0
   -1.6145   -0.3010    0.0642 C   0  0  0  0  0  0  0  0  0  0  0  0
   -2.6843   -1.3246    0.0960 C   0  0  0  0  0  0  0  0  0  0  0  0
   -2.6467   -2.6423   -0.3734 C   0  0  0  0  0  0  0  0  0  0  0  0
   -3.7726   -3.4714   -0.2633 C   0  0  0  0  0  0  0  0  0  0  0  0
   -4.9716   -3.0204    0.3129 C   0  0  0  0  0  0  0  0  0  0  0  0
   -4.9940   -1.7011    0.7705 C   0  0  0  0  0  0  0  0  0  0  0  0
   -5.9764   -0.9437    1.3714 N   0  0  0  0  0  0  0  0  0  0  0  0
   -5.5077    0.3253    1.6402 C   0  0  0  0  0  0  0  0  0  0  0  0
   -4.2039    0.3849    1.2059 C   0  0  0  0  0  0  0  0  0  0  0  0
   -3.8848   -0.8791    0.6649 C   0  0  0  0  0  0  0  0  0  0  0  0
   -3.1666    1.4553    1.2202 C   0  0  0  0  0  0  0  0  0  0  0  0
   -2.0697    1.1920    0.1169 C   0  0  1  0  0  0  0  0  0  0  0  0
   -0.9319    2.1509    0.2904 N   0  0  0  0  0  0  0  0  0  0  0  0
   -1.3206    3.5165   -0.0738 C   0  0  0  0  0  0  0  0  0  0  0  0
    0.2244    1.7349   -0.5282 C   0  0  0  0  0  0  0  0  0  0  0  0
  1  2  2  0
  2  3  1  0
  3  4  1  0
  4  5  1  0
  5  6  1  0
  6  7  2  0
  4  8  1  0
  8  9  2  0
 10  8  1  6
 10 11  1  0
 11 12  2  0
 12 13  1  0
 13 14  2  0
 14 15  1  0
 15 16  2  0
 16 17  1  0
 17 18  1  0
 18 19  1  0
 19 20  2  0
 20 21  1  0
 20 22  1  0
 23 22  1  1
 23 24  1  0
 24 25  1  0
 24 26  1  0
 26 10  1  0
 23 12  1  0
 21 13  1  0
 21 17  2  0
M  END
$$$$
