
     RDKit          3D

 26 29  0  0  0  0  0  0  0  0999 V2000
    3.2297   -2.7392   -1.0381 C   0  0  0  0  0  0  0  0  0  0  0  0
    3.8606   -1.5639   -0.9107 C   0  0  0  0  0  0  0  0  0  0  0  0
    3.5385   -0.3292   -1.6978 C   0  0  0  0  0  0  0  0  0  0  0  0
    3.2475    0.7823   -0.7936 N   0  0  0  0  0  0  0  0  0  0  0  0
    4.3158    1.7546   -0.5733 C   0  0  0  0  0  0  0  0  0  0  0  0
    5.2232    1.2654    0.5147 C   0  0  0  0  0  0  0  0  0  0  0  0
    6.5212    0.9740    0.3548 C   0  0  0  0  0  0  0  0  0  0  0  0
    2.0399    0.9817   -0.1268 C   0  0  0  0  0  0  0  0  0  0  0  0
    1.8879    1.9431    0.6364 O   0  0  0  0  0  0  0  0  0  0  0  0
    0.8862   -0.0115   -0.3436 C   0  0  2  0  0  0  0  0  0  0  0  0
   -0.3424    0.7299   -0.8066 C   0  0  0  0  0  0  0  0  0  0  0  0
   -1.5622    0.4326   -0.3206 C   0  0  0  0  0  0  0  0  0  0  0  0
   -2.7581    1.1965   -0.7449 C   0  0  0  0  0  0  0  0  0  0  0  0
   -2.8294    2.5031   -1.2411 C   0  0  0  0  0  0  0  0  0  0  0  0
   -4.0652    3.0691   -1.5869 C   0  0  0  0  0  0  0  0  0  0  0  0
   -5.2695    2.3594   -1.4496 C   0  0  0  0  0  0  0  0  0  0  0  0
   -5.1813    1.0595   -0.9468 C   0  0  0  0  0  0  0  0  0  0  0  0
   -6.1351    0.1001   -0.6828 N   0  0  0  0  0  0  0  0  0  0  0  0
   -5.5429   -1.0421   -0.1862 C   0  0  0  0  0  0  0  0  0  0  0  0
   -4.1876   -0.8138   -0.1298 C   0  0  0  0  0  0  0  0  0  0  0  0
   -3.9635    0.4961   -0.6051 C   0  0  0  0  0  0  0  0  0  0  0  0
   -3.0258   -1.6438    0.2979 C   0  0  0  0  0  0  0  0  0  0  0  0
   -1.7966   -0.7358    0.6906 C   0  0  1  0  0  0  0  0  0  0  0  0
   -0.5830   -1.5878    0.8997 N   0  0  0  0  0  0  0  0  0  0  0  0
   -0.6942   -2.3961    2.1171 C   0  0  0  0  0  0  0  0  0  0  0  0
    0.6293   -0.7461    0.9826 C   0  0  0  0  0  0  0  0  0  0  0  0
  1  2  2  0
  2  3  1  0
  3  4  1  0
  4  5  1  0
  5  6  1  0
  6  7  2  0
  4  8  1  0
  8  9  2  0
 10  8  1  1
 10 11  1  0
 11 12  2  0
 12 13  1  0
 13 14  2  0
 14 15  1  0
 15 16  2  0
 16 17  1  0
 17 18  1  0
 18 19  1  0
 19 20  2  0
 20 21  1  0
 20 22  1  0
 23 22  1  6
 23 24  1  0
 24 25  1  0
 24 26  1  0
 26 10  1  0
 23 12  1  0
 21 13  1  0
 21 17  2  0
M  END
$$$$
