
     RDKit          3D

 26 29  0  0  0  0  0  0  0  0999 V2000
    4.6268    3.1745   -1.2230 C   0  0  0  0  0  0  0  0  0  0  0  0
    4.9303    2.1014   -0.4801 C   0  0  0  0  0  0  0  0  0  0  0  0
    4.6054    0.6885   -0.8712 C   0  0  0  0  0  0  0  0  0  0  0  0
    3.4664    0.2356   -0.0792 N   0  0  0  0  0  0  0  0  0  0  0  0
    3.7552   -0.3049    1.2466 C   0  0  0  0  0  0  0  0  0  0  0  0
    3.9917   -1.7817    1.1293 C   0  0  0  0  0  0  0  0  0  0  0  0
    3.3199   -2.7197    1.8109 C   0  0  0  0  0  0  0  0  0  0  0  0
    2.1996    0.3114   -0.6613 C   0  0  0  0  0  0  0  0  0  0  0  0
    2.0513    0.7050   -1.8230 O   0  0  0  0  0  0  0  0  0  0  0  0
    0.9769   -0.0699    0.1942 C   0  0  2  0  0  0  0  0  0  0  0  0
   -0.1504   -0.5950   -0.6667 C   0  0  0  0  0  0  0  0  0  0  0  0
   -1.4261   -0.1910   -0.5021 C   0  0  0  0  0  0  0  0  0  0  0  0
   -2.4953   -0.6153   -1.4402 C   0  0  0  0  0  0  0  0  0  0  0  0
   -2.3586   -1.1600   -2.7239 C   0  0  0  0  0  0  0  0  0  0  0  0
   -3.4864   -1.4688   -3.4982 C   0  0  0  0  0  0  0  0  0  0  0  0
   -4.7892   -1.2404   -3.0302 C   0  0  0  0  0  0  0  0  0  0  0  0
   -4.9120   -0.6901   -1.7530 C   0  0  0  0  0  0  0  0  0  0  0  0
   -6.0125   -0.3343   -1.0030 N   0  0  0  0  0  0  0  0  0  0  0  0
   -5.6188    0.1662    0.2191 C   0  0  0  0  0  0  0  0  0  0  0  0
   -4.2442    0.1371    0.2529 C   0  0  0  0  0  0  0  0  0  0  0  0
   -3.8016   -0.3908   -0.9800 C   0  0  0  0  0  0  0  0  0  0  0  0
   -3.2437    0.4989    1.2937 C   0  0  0  0  0  0  0  0  0  0  0  0
   -1.8377    0.7882    0.6432 C   0  0  1  0  0  0  0  0  0  0  0  0
   -0.7699    1.0214    1.6659 N   0  0  0  0  0  0  0  0  0  0  0  0
   -0.7094   -0.0046    2.7058 C   0  0  0  0  0  0  0  0  0  0  0  0
    0.5344    1.1752    0.9881 C   0  0  0  0  0  0  0  0  0  0  0  0
  1  2  2  0
  2  3  1  0
  3  4  1  0
  4  5  1  0
  5  6  1  0
  6  7  2  0
  4  8  1  0
  8  9  2  0
 10  8  1  6
 10 11  1  0
 11 12  2  0
 12 13  1  0
 13 14  2  0
 14 15  1  0
 15 16  2  0
 16 17  1  0
 17 18  1  0
 18 19  1  0
 19 20  2  0
 20 21  1  0
 20 22  1  0
 23 22  1  1
 23 24  1  0
 24 25  1  0
 24 26  1  0
 26 10  1  0
 23 12  1  0
 21 13  1  0
 21 17  2  0
M  END
$$$$
