
     RDKit          3D

 26 29  0  0  0  0  0  0  0  0999 V2000
    4.7384    3.5055   -0.4222 C   0  0  0  0  0  0  0  0  0  0  0  0
    4.1231    2.5453    0.2810 C   0  0  0  0  0  0  0  0  0  0  0  0
    4.4117    1.0775    0.1632 C   0  0  0  0  0  0  0  0  0  0  0  0
    3.2200    0.4101   -0.3480 N   0  0  0  0  0  0  0  0  0  0  0  0
    3.0757    0.3485   -1.7998 C   0  0  0  0  0  0  0  0  0  0  0  0
    3.6998   -0.8902   -2.3845 C   0  0  0  0  0  0  0  0  0  0  0  0
    4.3187   -1.8945   -1.7465 C   0  0  0  0  0  0  0  0  0  0  0  0
    2.3177   -0.1287    0.5696 C   0  0  0  0  0  0  0  0  0  0  0  0
    2.5177   -0.0417    1.7854 O   0  0  0  0  0  0  0  0  0  0  0  0
    1.0410   -0.7978    0.0303 C   0  0  2  0  0  0  0  0  0  0  0  0
   -0.0264    0.2489   -0.1781 C   0  0  0  0  0  0  0  0  0  0  0  0
   -1.3149    0.0092    0.1307 C   0  0  0  0  0  0  0  0  0  0  0  0
   -2.3481    1.0565   -0.0429 C   0  0  0  0  0  0  0  0  0  0  0  0
   -2.1909    2.4472   -0.0514 C   0  0  0  0  0  0  0  0  0  0  0  0
   -3.2988    3.2898   -0.2240 C   0  0  0  0  0  0  0  0  0  0  0  0
   -4.5974    2.7814   -0.3913 C   0  0  0  0  0  0  0  0  0  0  0  0
   -4.7376    1.3920   -0.3747 C   0  0  0  0  0  0  0  0  0  0  0  0
   -5.8356    0.5686   -0.5025 N   0  0  0  0  0  0  0  0  0  0  0  0
   -5.4562   -0.7545   -0.4170 C   0  0  0  0  0  0  0  0  0  0  0  0
   -4.0936   -0.7826   -0.2310 C   0  0  0  0  0  0  0  0  0  0  0  0
   -3.6469    0.5561   -0.2055 C   0  0  0  0  0  0  0  0  0  0  0  0
   -3.1031   -1.8861   -0.0773 C   0  0  0  0  0  0  0  0  0  0  0  0
   -1.8043   -1.3776    0.6593 C   0  0  1  0  0  0  0  0  0  0  0  0
   -0.7443   -2.4325    0.6092 N   0  0  0  0  0  0  0  0  0  0  0  0
   -1.0764   -3.5716    1.4697 C   0  0  0  0  0  0  0  0  0  0  0  0
    0.5582   -1.8699    1.0267 C   0  0  0  0  0  0  0  0  0  0  0  0
  1  2  2  0
  2  3  1  0
  3  4  1  0
  4  5  1  0
  5  6  1  0
  6  7  2  0
  4  8  1  0
  8  9  2  0
 10  8  1  1
 10 11  1  0
 11 12  2  0
 12 13  1  0
 13 14  2  0
 14 15  1  0
 15 16  2  0
 16 17  1  0
 17 18  1  0
 18 19  1  0
 19 20  2  0
 20 21  1  0
 20 22  1  0
 23 22  1  6
 23 24  1  0
 24 25  1  0
 24 26  1  0
 26 10  1  0
 23 12  1  0
 21 13  1  0
 21 17  2  0
M  END
$$$$
