
     RDKit          3D

 26 29  0  0  0  0  0  0  0  0999 V2000
    2.6165    0.5825   -2.3144 C   0  0  0  0  0  0  0  0  0  0  0  0
    2.3846   -0.3528   -1.1363 C   0  0  0  0  0  0  0  0  0  0  0  0
    3.1684    0.0067    0.0521 N   0  0  0  0  0  0  0  0  0  0  0  0
    4.6271   -0.0952   -0.0716 C   0  0  0  0  0  0  0  0  0  0  0  0
    5.2994    1.2654   -0.1931 C   0  0  0  0  0  0  0  0  0  0  0  0
    2.6647    0.3135    1.3160 C   0  0  0  0  0  0  0  0  0  0  0  0
    3.4364    0.5091    2.2654 O   0  0  0  0  0  0  0  0  0  0  0  0
    1.1533    0.4326    1.5848 C   0  0  2  0  0  0  0  0  0  0  0  0
    0.4153   -0.8614    1.3747 C   0  0  0  0  0  0  0  0  0  0  0  0
   -0.8061   -0.8843    0.8079 C   0  0  0  0  0  0  0  0  0  0  0  0
   -1.4849   -2.1706    0.5229 C   0  0  0  0  0  0  0  0  0  0  0  0
   -0.9184   -3.4433    0.3778 C   0  0  0  0  0  0  0  0  0  0  0  0
   -1.7209   -4.5555    0.0843 C   0  0  0  0  0  0  0  0  0  0  0  0
   -3.1106   -4.4427   -0.0788 C   0  0  0  0  0  0  0  0  0  0  0  0
   -3.6600   -3.1672    0.0658 C   0  0  0  0  0  0  0  0  0  0  0  0
   -4.9541   -2.7010   -0.0230 N   0  0  0  0  0  0  0  0  0  0  0  0
   -4.9909   -1.3425    0.2086 C   0  0  0  0  0  0  0  0  0  0  0  0
   -3.7014   -0.9296    0.4510 C   0  0  0  0  0  0  0  0  0  0  0  0
   -2.8720   -2.0666    0.3587 C   0  0  0  0  0  0  0  0  0  0  0  0
   -3.0986    0.3899    0.7849 C   0  0  0  0  0  0  0  0  0  0  0  0
   -1.5652    0.4286    0.4161 C   0  0  1  0  0  0  0  0  0  0  0  0
   -0.9291    1.6523    0.9821 N   0  0  0  0  0  0  0  0  0  0  0  0
   -1.4903    2.9274    0.5225 C   0  0  0  0  0  0  0  0  0  0  0  0
   -1.3762    3.1966   -0.9532 C   0  0  0  0  0  0  0  0  0  0  0  0
   -0.6495    4.1874   -1.4880 C   0  0  0  0  0  0  0  0  0  0  0  0
    0.5382    1.6316    0.8495 C   0  0  0  0  0  0  0  0  0  0  0  0
  1  2  1  0
  2  3  1  0
  3  4  1  0
  4  5  1  0
  3  6  1  0
  6  7  2  0
  8  6  1  6
  8  9  1  0
  9 10  2  0
 10 11  1  0
 11 12  2  0
 12 13  1  0
 13 14  2  0
 14 15  1  0
 15 16  1  0
 16 17  1  0
 17 18  2  0
 18 19  1  0
 18 20  1  0
 21 20  1  1
 21 22  1  0
 22 23  1  0
 23 24  1  0
 24 25  2  0
 22 26  1  0
 26  8  1  0
 21 10  1  0
 19 11  1  0
 19 15  2  0
M  END
$$$$
