
     RDKit          3D

 26 29  0  0  0  0  0  0  0  0999 V2000
    4.8536   -1.2933   -1.6994 C   0  0  0  0  0  0  0  0  0  0  0  0
    4.7357    0.0413   -0.9800 C   0  0  0  0  0  0  0  0  0  0  0  0
    3.5098    0.1181   -0.1841 N   0  0  0  0  0  0  0  0  0  0  0  0
    3.6029   -0.3113    1.2136 C   0  0  0  0  0  0  0  0  0  0  0  0
    4.0263    0.8291    2.1267 C   0  0  0  0  0  0  0  0  0  0  0  0
    2.3559    0.6060   -0.8041 C   0  0  0  0  0  0  0  0  0  0  0  0
    2.3671    0.9416   -1.9924 O   0  0  0  0  0  0  0  0  0  0  0  0
    1.0586    0.6686    0.0203 C   0  0  2  0  0  0  0  0  0  0  0  0
    0.3500   -0.6595   -0.0542 C   0  0  0  0  0  0  0  0  0  0  0  0
   -0.9906   -0.7302   -0.1467 C   0  0  0  0  0  0  0  0  0  0  0  0
   -1.6761   -2.0387   -0.2507 C   0  0  0  0  0  0  0  0  0  0  0  0
   -1.1862   -3.2461   -0.7601 C   0  0  0  0  0  0  0  0  0  0  0  0
   -1.9946   -4.3922   -0.7783 C   0  0  0  0  0  0  0  0  0  0  0  0
   -3.3134   -4.3773   -0.2940 C   0  0  0  0  0  0  0  0  0  0  0  0
   -3.7876   -3.1625    0.2059 C   0  0  0  0  0  0  0  0  0  0  0  0
   -5.0003   -2.7896    0.7449 N   0  0  0  0  0  0  0  0  0  0  0  0
   -4.9795   -1.4561    1.0973 C   0  0  0  0  0  0  0  0  0  0  0  0
   -3.7349   -0.9639    0.7801 C   0  0  0  0  0  0  0  0  0  0  0  0
   -2.9933   -2.0290    0.2260 C   0  0  0  0  0  0  0  0  0  0  0  0
   -3.0949    0.3764    0.9170 C   0  0  0  0  0  0  0  0  0  0  0  0
   -1.9044    0.5382   -0.1097 C   0  0  1  0  0  0  0  0  0  0  0  0
   -1.1576    1.8071    0.1705 N   0  0  0  0  0  0  0  0  0  0  0  0
   -1.9313    2.9842   -0.2631 C   0  0  0  0  0  0  0  0  0  0  0  0
   -1.3817    4.2522    0.3285 C   0  0  0  0  0  0  0  0  0  0  0  0
   -1.0119    5.3262   -0.3821 C   0  0  0  0  0  0  0  0  0  0  0  0
    0.1526    1.7881   -0.5261 C   0  0  0  0  0  0  0  0  0  0  0  0
  1  2  1  0
  2  3  1  0
  3  4  1  0
  4  5  1  0
  3  6  1  0
  6  7  2  0
  8  6  1  6
  8  9  1  0
  9 10  2  0
 10 11  1  0
 11 12  2  0
 12 13  1  0
 13 14  2  0
 14 15  1  0
 15 16  1  0
 16 17  1  0
 17 18  2  0
 18 19  1  0
 18 20  1  0
 21 20  1  1
 21 22  1  0
 22 23  1  0
 23 24  1  0
 24 25  2  0
 22 26  1  0
 26  8  1  0
 21 10  1  0
 19 11  1  0
 19 15  2  0
M  END
$$$$
