
     RDKit          3D

 26 29  0  0  0  0  0  0  0  0999 V2000
    4.2114    1.9912   -0.9478 C   0  0  0  0  0  0  0  0  0  0  0  0
    3.6114    1.5148    0.3688 C   0  0  0  0  0  0  0  0  0  0  0  0
    3.5255    0.0506    0.4564 N   0  0  0  0  0  0  0  0  0  0  0  0
    4.7859   -0.6742    0.6523 C   0  0  0  0  0  0  0  0  0  0  0  0
    5.1454   -0.8107    2.1250 C   0  0  0  0  0  0  0  0  0  0  0  0
    2.3445   -0.6946    0.5577 C   0  0  0  0  0  0  0  0  0  0  0  0
    2.3877   -1.9187    0.7259 O   0  0  0  0  0  0  0  0  0  0  0  0
    0.9888    0.0307    0.4374 C   0  0  2  0  0  0  0  0  0  0  0  0
   -0.1269   -0.7910    1.0353 C   0  0  0  0  0  0  0  0  0  0  0  0
   -1.3404   -0.8521    0.4569 C   0  0  0  0  0  0  0  0  0  0  0  0
   -2.4147   -1.6922    1.0331 C   0  0  0  0  0  0  0  0  0  0  0  0
   -2.2986   -2.8447    1.8173 C   0  0  0  0  0  0  0  0  0  0  0  0
   -3.4438   -3.5152    2.2714 C   0  0  0  0  0  0  0  0  0  0  0  0
   -4.7386   -3.0657    1.9615 C   0  0  0  0  0  0  0  0  0  0  0  0
   -4.8354   -1.9163    1.1739 C   0  0  0  0  0  0  0  0  0  0  0  0
   -5.9150   -1.2107    0.6875 N   0  0  0  0  0  0  0  0  0  0  0  0
   -5.4875   -0.1275   -0.0524 C   0  0  0  0  0  0  0  0  0  0  0  0
   -4.1121   -0.1363   -0.0411 C   0  0  0  0  0  0  0  0  0  0  0  0
   -3.7079   -1.2512    0.7240 C   0  0  0  0  0  0  0  0  0  0  0  0
   -3.0725    0.7537   -0.6349 C   0  0  0  0  0  0  0  0  0  0  0  0
   -1.7076   -0.0232   -0.8153 C   0  0  1  0  0  0  0  0  0  0  0  0
   -0.6333    0.9296   -1.2367 N   0  0  0  0  0  0  0  0  0  0  0  0
   -0.7881    1.3341   -2.6447 C   0  0  0  0  0  0  0  0  0  0  0  0
   -0.1144    2.6364   -3.0049 C   0  0  0  0  0  0  0  0  0  0  0  0
    0.3828    3.5552   -2.1639 C   0  0  0  0  0  0  0  0  0  0  0  0
    0.7019    0.3170   -1.0435 C   0  0  0  0  0  0  0  0  0  0  0  0
  1  2  1  0
  2  3  1  0
  3  4  1  0
  4  5  1  0
  3  6  1  0
  6  7  2  0
  8  6  1  6
  8  9  1  0
  9 10  2  0
 10 11  1  0
 11 12  2  0
 12 13  1  0
 13 14  2  0
 14 15  1  0
 15 16  1  0
 16 17  1  0
 17 18  2  0
 18 19  1  0
 18 20  1  0
 21 20  1  1
 21 22  1  0
 22 23  1  0
 23 24  1  0
 24 25  2  0
 22 26  1  0
 26  8  1  0
 21 10  1  0
 19 11  1  0
 19 15  2  0
M  END
$$$$
