
     RDKit          3D

 26 29  0  0  0  0  0  0  0  0999 V2000
   -2.7782    0.9865    2.0125 C   0  0  0  0  0  0  0  0  0  0  0  0
   -2.4440   -0.1812    1.0926 C   0  0  0  0  0  0  0  0  0  0  0  0
   -3.2059   -0.1540   -0.1627 N   0  0  0  0  0  0  0  0  0  0  0  0
   -4.6340   -0.4804   -0.0651 C   0  0  0  0  0  0  0  0  0  0  0  0
   -4.8889   -1.9791   -0.1478 C   0  0  0  0  0  0  0  0  0  0  0  0
   -2.6731   -0.0649   -1.4497 C   0  0  0  0  0  0  0  0  0  0  0  0
   -3.4070   -0.1957   -2.4396 O   0  0  0  0  0  0  0  0  0  0  0  0
   -1.1754    0.1933   -1.7003 C   0  0  2  0  0  0  0  0  0  0  0  0
   -0.3037   -0.9405   -1.2331 C   0  0  0  0  0  0  0  0  0  0  0  0
    0.8901   -0.7096   -0.6539 C   0  0  0  0  0  0  0  0  0  0  0  0
    1.7001   -1.8282   -0.1162 C   0  0  0  0  0  0  0  0  0  0  0  0
    1.2773   -3.1080    0.2645 C   0  0  0  0  0  0  0  0  0  0  0  0
    2.1901   -4.0405    0.7785 C   0  0  0  0  0  0  0  0  0  0  0  0
    3.5511   -3.7344    0.9358 C   0  0  0  0  0  0  0  0  0  0  0  0
    3.9565   -2.4538    0.5548 C   0  0  0  0  0  0  0  0  0  0  0  0
    5.1850   -1.8288    0.5693 N   0  0  0  0  0  0  0  0  0  0  0  0
    5.0751   -0.5447    0.0799 C   0  0  0  0  0  0  0  0  0  0  0  0
    3.7566   -0.3417   -0.2554 C   0  0  0  0  0  0  0  0  0  0  0  0
    3.0594   -1.5306    0.0438 C   0  0  0  0  0  0  0  0  0  0  0  0
    3.0198    0.8089   -0.8464 C   0  0  0  0  0  0  0  0  0  0  0  0
    1.4798    0.7345   -0.5127 C   0  0  1  0  0  0  0  0  0  0  0  0
    0.7286    1.7438   -1.3128 N   0  0  0  0  0  0  0  0  0  0  0  0
    1.1228    3.1406   -1.0992 C   0  0  0  0  0  0  0  0  0  0  0  0
    0.9248    3.6691    0.2952 C   0  0  0  0  0  0  0  0  0  0  0  0
    0.0704    4.6493    0.6192 C   0  0  0  0  0  0  0  0  0  0  0  0
   -0.7305    1.5726   -1.1966 C   0  0  0  0  0  0  0  0  0  0  0  0
  1  2  1  0
  2  3  1  0
  3  4  1  0
  4  5  1  0
  3  6  1  0
  6  7  2  0
  8  6  1  1
  8  9  1  0
  9 10  2  0
 10 11  1  0
 11 12  2  0
 12 13  1  0
 13 14  2  0
 14 15  1  0
 15 16  1  0
 16 17  1  0
 17 18  2  0
 18 19  1  0
 18 20  1  0
 21 20  1  6
 21 22  1  0
 22 23  1  0
 23 24  1  0
 24 25  2  0
 22 26  1  0
 26  8  1  0
 21 10  1  0
 19 11  1  0
 19 15  2  0
M  END
$$$$
