
     RDKit          3D

 26 29  0  0  0  0  0  0  0  0999 V2000
    3.7897   -2.3724    0.5157 C   0  0  0  0  0  0  0  0  0  0  0  0
    3.9317   -0.9846    1.1270 C   0  0  0  0  0  0  0  0  0  0  0  0
    4.0636    0.0686    0.1133 N   0  0  0  0  0  0  0  0  0  0  0  0
    5.3536    0.1536   -0.5812 C   0  0  0  0  0  0  0  0  0  0  0  0
    6.3579    1.0140    0.1726 C   0  0  0  0  0  0  0  0  0  0  0  0
    3.1536    1.1115   -0.1119 C   0  0  0  0  0  0  0  0  0  0  0  0
    3.4522    2.0356   -0.8752 O   0  0  0  0  0  0  0  0  0  0  0  0
    1.7909    1.0966    0.6179 C   0  0  2  0  0  0  0  0  0  0  0  0
    0.8822   -0.0042    0.1291 C   0  0  0  0  0  0  0  0  0  0  0  0
   -0.3283    0.2403   -0.4014 C   0  0  0  0  0  0  0  0  0  0  0  0
   -1.3004   -0.8502   -0.6346 C   0  0  0  0  0  0  0  0  0  0  0  0
   -1.0654   -2.1687   -1.0261 C   0  0  0  0  0  0  0  0  0  0  0  0
   -2.1359   -3.0635   -1.1543 C   0  0  0  0  0  0  0  0  0  0  0  0
   -3.4635   -2.6781   -0.8928 C   0  0  0  0  0  0  0  0  0  0  0  0
   -3.6856   -1.3512   -0.5000 C   0  0  0  0  0  0  0  0  0  0  0  0
   -4.8191   -0.6342   -0.1663 N   0  0  0  0  0  0  0  0  0  0  0  0
   -6.1754   -1.1557   -0.1624 C   0  0  0  0  0  0  0  0  0  0  0  0
   -6.5309   -1.8214    1.1551 C   0  0  0  0  0  0  0  0  0  0  0  0
   -4.4914    0.6704    0.1509 C   0  0  0  0  0  0  0  0  0  0  0  0
   -3.1287    0.8001    0.0228 C   0  0  0  0  0  0  0  0  0  0  0  0
   -2.6279   -0.4645   -0.3769 C   0  0  0  0  0  0  0  0  0  0  0  0
   -2.1750    1.9425    0.1990 C   0  0  0  0  0  0  0  0  0  0  0  0
   -0.8779    1.6631   -0.6462 C   0  0  1  0  0  0  0  0  0  0  0  0
    0.1087    2.7537   -0.4819 N   0  0  0  0  0  0  0  0  0  0  0  0
    0.7820    3.0383   -1.7514 C   0  0  0  0  0  0  0  0  0  0  0  0
    1.0823    2.4808    0.5938 C   0  0  0  0  0  0  0  0  0  0  0  0
  1  2  1  0
  2  3  1  0
  3  4  1  0
  4  5  1  0
  3  6  1  0
  6  7  2  0
  8  6  1  6
  8  9  1  0
  9 10  2  0
 10 11  1  0
 11 12  2  0
 12 13  1  0
 13 14  2  0
 14 15  1  0
 15 16  1  0
 16 17  1  0
 17 18  1  0
 16 19  1  0
 19 20  2  0
 20 21  1  0
 20 22  1  0
 23 22  1  1
 23 24  1  0
 24 25  1  0
 24 26  1  0
 26  8  1  0
 23 10  1  0
 21 11  1  0
 21 15  2  0
M  END
$$$$
