
     RDKit          3D

 26 29  0  0  0  0  0  0  0  0999 V2000
   -5.7589   -1.1467    1.6622 C   0  0  0  0  0  0  0  0  0  0  0  0
   -5.4928   -0.8992    0.1855 C   0  0  0  0  0  0  0  0  0  0  0  0
   -4.3683    0.0191   -0.0082 N   0  0  0  0  0  0  0  0  0  0  0  0
   -4.7011    1.4355   -0.1806 C   0  0  0  0  0  0  0  0  0  0  0  0
   -5.0171    1.7680   -1.6311 C   0  0  0  0  0  0  0  0  0  0  0  0
   -3.0847   -0.5310   -0.0818 C   0  0  0  0  0  0  0  0  0  0  0  0
   -2.9192   -1.7530   -0.0188 O   0  0  0  0  0  0  0  0  0  0  0  0
   -1.8876    0.4286   -0.2257 C   0  0  2  0  0  0  0  0  0  0  0  0
   -0.7037   -0.2295   -0.8891 C   0  0  0  0  0  0  0  0  0  0  0  0
    0.4823   -0.3486   -0.2679 C   0  0  0  0  0  0  0  0  0  0  0  0
    1.7003   -0.7605   -0.9973 C   0  0  0  0  0  0  0  0  0  0  0  0
    1.8282   -1.6569   -2.0583 C   0  0  0  0  0  0  0  0  0  0  0  0
    3.0836   -1.8821   -2.6382 C   0  0  0  0  0  0  0  0  0  0  0  0
    4.2410   -1.2209   -2.1877 C   0  0  0  0  0  0  0  0  0  0  0  0
    4.0978   -0.3204   -1.1233 C   0  0  0  0  0  0  0  0  0  0  0  0
    4.9827    0.4863   -0.4332 N   0  0  0  0  0  0  0  0  0  0  0  0
    6.4064    0.5972   -0.7016 C   0  0  0  0  0  0  0  0  0  0  0  0
    7.2132   -0.4614    0.0293 C   0  0  0  0  0  0  0  0  0  0  0  0
    4.3246    1.1933    0.5555 C   0  0  0  0  0  0  0  0  0  0  0  0
    2.9974    0.8374    0.5081 C   0  0  0  0  0  0  0  0  0  0  0  0
    2.8577   -0.1019   -0.5449 C   0  0  0  0  0  0  0  0  0  0  0  0
    1.7918    1.2212    1.3113 C   0  0  0  0  0  0  0  0  0  0  0  0
    0.7163    0.0786    1.2003 C   0  0  1  0  0  0  0  0  0  0  0  0
   -0.5110    0.4216    1.9617 N   0  0  0  0  0  0  0  0  0  0  0  0
   -1.0667   -0.7733    2.6042 C   0  0  0  0  0  0  0  0  0  0  0  0
   -1.5170    1.0954    1.1204 C   0  0  0  0  0  0  0  0  0  0  0  0
  1  2  1  0
  2  3  1  0
  3  4  1  0
  4  5  1  0
  3  6  1  0
  6  7  2  0
  8  6  1  1
  8  9  1  0
  9 10  2  0
 10 11  1  0
 11 12  2  0
 12 13  1  0
 13 14  2  0
 14 15  1  0
 15 16  1  0
 16 17  1  0
 17 18  1  0
 16 19  1  0
 19 20  2  0
 20 21  1  0
 20 22  1  0
 23 22  1  6
 23 24  1  0
 24 25  1  0
 24 26  1  0
 26  8  1  0
 23 10  1  0
 21 11  1  0
 21 15  2  0
M  END
$$$$
