
     RDKit          3D

 26 29  0  0  0  0  0  0  0  0999 V2000
   -5.7075   -1.9608   -1.4602 C   0  0  0  0  0  0  0  0  0  0  0  0
   -5.3877   -1.7605    0.0139 C   0  0  0  0  0  0  0  0  0  0  0  0
   -4.4086   -0.6973    0.2594 N   0  0  0  0  0  0  0  0  0  0  0  0
   -4.9268    0.6430    0.5514 C   0  0  0  0  0  0  0  0  0  0  0  0
   -5.1835    1.4699   -0.6984 C   0  0  0  0  0  0  0  0  0  0  0  0
   -3.0606   -1.0046    0.0433 C   0  0  0  0  0  0  0  0  0  0  0  0
   -2.7184   -2.1340   -0.3208 O   0  0  0  0  0  0  0  0  0  0  0  0
   -2.0091    0.0884    0.3132 C   0  0  2  0  0  0  0  0  0  0  0  0
   -0.7852   -0.1083   -0.5529 C   0  0  0  0  0  0  0  0  0  0  0  0
    0.4656   -0.0196   -0.0571 C   0  0  0  0  0  0  0  0  0  0  0  0
    1.6501   -0.3491   -0.8900 C   0  0  0  0  0  0  0  0  0  0  0  0
    1.6879   -1.0715   -2.0895 C   0  0  0  0  0  0  0  0  0  0  0  0
    2.9051   -1.3324   -2.7314 C   0  0  0  0  0  0  0  0  0  0  0  0
    4.1270   -0.8929   -2.2012 C   0  0  0  0  0  0  0  0  0  0  0  0
    4.0850   -0.1774   -0.9982 C   0  0  0  0  0  0  0  0  0  0  0  0
    5.0653    0.3826   -0.2013 N   0  0  0  0  0  0  0  0  0  0  0  0
    6.4922    0.3558   -0.4739 C   0  0  0  0  0  0  0  0  0  0  0  0
    7.1541   -0.9053    0.0524 C   0  0  0  0  0  0  0  0  0  0  0  0
    4.4993    0.9968    0.8962 C   0  0  0  0  0  0  0  0  0  0  0  0
    3.1379    0.8245    0.8101 C   0  0  0  0  0  0  0  0  0  0  0  0
    2.8774    0.0875   -0.3659 C   0  0  0  0  0  0  0  0  0  0  0  0
    2.0023    1.2811    1.6563 C   0  0  0  0  0  0  0  0  0  0  0  0
    0.7348    0.3739    1.4298 C   0  0  1  0  0  0  0  0  0  0  0  0
   -0.4701    0.8790    2.1605 N   0  0  0  0  0  0  0  0  0  0  0  0
   -0.7420    2.2997    1.9478 C   0  0  0  0  0  0  0  0  0  0  0  0
   -1.6422    0.0502    1.8097 C   0  0  0  0  0  0  0  0  0  0  0  0
  1  2  1  0
  2  3  1  0
  3  4  1  0
  4  5  1  0
  3  6  1  0
  6  7  2  0
  8  6  1  1
  8  9  1  0
  9 10  2  0
 10 11  1  0
 11 12  2  0
 12 13  1  0
 13 14  2  0
 14 15  1  0
 15 16  1  0
 16 17  1  0
 17 18  1  0
 16 19  1  0
 19 20  2  0
 20 21  1  0
 20 22  1  0
 23 22  1  6
 23 24  1  0
 24 25  1  0
 24 26  1  0
 26  8  1  0
 23 10  1  0
 21 11  1  0
 21 15  2  0
M  END
$$$$
