
     RDKit          3D

 26 29  0  0  0  0  0  0  0  0999 V2000
   -3.7989    2.2723    1.7196 C   0  0  0  0  0  0  0  0  0  0  0  0
   -3.8804    0.8084    2.1260 C   0  0  0  0  0  0  0  0  0  0  0  0
   -4.1431   -0.0887    0.9960 N   0  0  0  0  0  0  0  0  0  0  0  0
   -5.4622    0.0124    0.3632 C   0  0  0  0  0  0  0  0  0  0  0  0
   -5.4144    0.7294   -0.9790 C   0  0  0  0  0  0  0  0  0  0  0  0
   -3.2796   -1.0824    0.5116 C   0  0  0  0  0  0  0  0  0  0  0  0
   -3.6621   -1.8533   -0.3744 O   0  0  0  0  0  0  0  0  0  0  0  0
   -1.8631   -1.2025    1.1186 C   0  0  2  0  0  0  0  0  0  0  0  0
   -0.9807   -0.0508    0.6965 C   0  0  0  0  0  0  0  0  0  0  0  0
    0.0980   -0.2184   -0.0893 C   0  0  0  0  0  0  0  0  0  0  0  0
    1.0510    0.8869   -0.3286 C   0  0  0  0  0  0  0  0  0  0  0  0
    0.8000    2.2566   -0.4249 C   0  0  0  0  0  0  0  0  0  0  0  0
    1.8586    3.1532   -0.6205 C   0  0  0  0  0  0  0  0  0  0  0  0
    3.1922    2.7177   -0.7206 C   0  0  0  0  0  0  0  0  0  0  0  0
    3.4301    1.3401   -0.6242 C   0  0  0  0  0  0  0  0  0  0  0  0
    4.5745    0.5670   -0.6737 N   0  0  0  0  0  0  0  0  0  0  0  0
    5.9235    1.0700   -0.8706 C   0  0  0  0  0  0  0  0  0  0  0  0
    6.5786    1.4834    0.4353 C   0  0  0  0  0  0  0  0  0  0  0  0
    4.2610   -0.7709   -0.5281 C   0  0  0  0  0  0  0  0  0  0  0  0
    2.8970   -0.8649   -0.3819 C   0  0  0  0  0  0  0  0  0  0  0  0
    2.3824    0.4527   -0.4350 C   0  0  0  0  0  0  0  0  0  0  0  0
    1.9541   -2.0145   -0.2101 C   0  0  0  0  0  0  0  0  0  0  0  0
    0.5084   -1.5916   -0.6811 C   0  0  1  0  0  0  0  0  0  0  0  0
   -0.5504   -2.6101   -0.5224 N   0  0  0  0  0  0  0  0  0  0  0  0
   -0.1549   -3.9574   -0.9007 C   0  0  0  0  0  0  0  0  0  0  0  0
   -1.2089   -2.5706    0.7878 C   0  0  0  0  0  0  0  0  0  0  0  0
  1  2  1  0
  2  3  1  0
  3  4  1  0
  4  5  1  0
  3  6  1  0
  6  7  2  0
  8  6  1  6
  8  9  1  0
  9 10  2  0
 10 11  1  0
 11 12  2  0
 12 13  1  0
 13 14  2  0
 14 15  1  0
 15 16  1  0
 16 17  1  0
 17 18  1  0
 16 19  1  0
 19 20  2  0
 20 21  1  0
 20 22  1  0
 23 22  1  1
 23 24  1  0
 24 25  1  0
 24 26  1  0
 26  8  1  0
 23 10  1  0
 21 11  1  0
 21 15  2  0
M  END
$$$$
