
     RDKit          3D

 23 27  0  0  0  0  0  0  0  0999 V2000
    4.6628    1.2356    1.6593 C   0  0  0  0  0  0  0  0  0  0  0  0
    5.3516    0.2164    0.8004 C   0  0  0  0  0  0  0  0  0  0  0  0
    4.3196    1.1289    0.1988 C   0  0  0  0  0  0  0  0  0  0  0  0
    3.0551    0.6128   -0.2144 N   0  0  0  0  0  0  0  0  0  0  0  0
    2.7664    0.3301   -1.5389 C   0  0  0  0  0  0  0  0  0  0  0  0
    3.5820    0.4667   -2.4490 O   0  0  0  0  0  0  0  0  0  0  0  0
    1.3548   -0.2085   -1.7945 C   0  0  2  0  0  0  0  0  0  0  0  0
    0.3188    0.7196   -1.2131 C   0  0  0  0  0  0  0  0  0  0  0  0
   -0.7259    0.2538   -0.5034 C   0  0  0  0  0  0  0  0  0  0  0  0
   -1.6859    1.1868    0.1326 C   0  0  0  0  0  0  0  0  0  0  0  0
   -1.4911    2.5240    0.5001 C   0  0  0  0  0  0  0  0  0  0  0  0
   -2.5184    3.2537    1.1162 C   0  0  0  0  0  0  0  0  0  0  0  0
   -3.7707    2.6815    1.3910 C   0  0  0  0  0  0  0  0  0  0  0  0
   -3.9484    1.3471    1.0206 C   0  0  0  0  0  0  0  0  0  0  0  0
   -5.0216    0.4894    1.1333 N   0  0  0  0  0  0  0  0  0  0  0  0
   -4.7056   -0.7453    0.6074 C   0  0  0  0  0  0  0  0  0  0  0  0
   -3.4104   -0.6801    0.1490 C   0  0  0  0  0  0  0  0  0  0  0  0
   -2.9381    0.6233    0.4097 C   0  0  0  0  0  0  0  0  0  0  0  0
   -2.5173   -1.6586   -0.5312 C   0  0  0  0  0  0  0  0  0  0  0  0
   -0.9998   -1.2764   -0.3308 C   0  0  1  0  0  0  0  0  0  0  0  0
   -0.1401   -2.1210   -1.2162 N   0  0  0  0  0  0  0  0  0  0  0  0
   -0.1610   -3.5318   -0.8206 C   0  0  0  0  0  0  0  0  0  0  0  0
    1.2514   -1.6332   -1.2258 C   0  0  0  0  0  0  0  0  0  0  0  0
  1  2  1  0
  2  3  1  0
  3  4  1  0
  4  5  1  0
  5  6  2  0
  7  5  1  1
  7  8  1  0
  8  9  2  0
  9 10  1  0
 10 11  2  0
 11 12  1  0
 12 13  2  0
 13 14  1  0
 14 15  1  0
 15 16  1  0
 16 17  2  0
 17 18  1  0
 17 19  1  0
 20 19  1  6
 20 21  1  0
 21 22  1  0
 21 23  1  0
  3  1  1  0
 23  7  1  0
 20  9  1  0
 18 10  1  0
 18 14  2  0
M  END
$$$$
