
     RDKit          3D

 23 27  0  0  0  0  0  0  0  0999 V2000
    4.6584   -1.6254   -1.3572 C   0  0  0  0  0  0  0  0  0  0  0  0
    5.3474   -0.3760   -0.8934 C   0  0  0  0  0  0  0  0  0  0  0  0
    4.3101   -1.0271   -0.0219 C   0  0  0  0  0  0  0  0  0  0  0  0
    3.0461   -0.3984    0.1850 N   0  0  0  0  0  0  0  0  0  0  0  0
    2.7513    0.3168    1.3322 C   0  0  0  0  0  0  0  0  0  0  0  0
    3.5537    0.4828    2.2493 O   0  0  0  0  0  0  0  0  0  0  0  0
    1.3448    0.9222    1.3780 C   0  0  2  0  0  0  0  0  0  0  0  0
    0.3001   -0.1482    1.1602 C   0  0  0  0  0  0  0  0  0  0  0  0
   -0.7143    0.0120    0.2873 C   0  0  0  0  0  0  0  0  0  0  0  0
   -1.6396   -1.1048   -0.0303 C   0  0  0  0  0  0  0  0  0  0  0  0
   -1.4763   -2.4713    0.2363 C   0  0  0  0  0  0  0  0  0  0  0  0
   -2.4332   -3.4063   -0.1847 C   0  0  0  0  0  0  0  0  0  0  0  0
   -3.5816   -3.0209   -0.8919 C   0  0  0  0  0  0  0  0  0  0  0  0
   -3.7323   -1.6578   -1.1526 C   0  0  0  0  0  0  0  0  0  0  0  0
   -4.7148   -0.9476   -1.8089 N   0  0  0  0  0  0  0  0  0  0  0  0
   -4.4241    0.3990   -1.7928 C   0  0  0  0  0  0  0  0  0  0  0  0
   -3.2347    0.5561   -1.1206 C   0  0  0  0  0  0  0  0  0  0  0  0
   -2.7955   -0.7280   -0.7305 C   0  0  0  0  0  0  0  0  0  0  0  0
   -2.4382    1.7509   -0.7313 C   0  0  0  0  0  0  0  0  0  0  0  0
   -0.9343    1.3601   -0.4732 C   0  0  1  0  0  0  0  0  0  0  0  0
   -0.1345    2.5024    0.0657 N   0  0  0  0  0  0  0  0  0  0  0  0
   -0.7284    3.1412    1.2416 C   0  0  0  0  0  0  0  0  0  0  0  0
    1.2462    2.0621    0.3461 C   0  0  0  0  0  0  0  0  0  0  0  0
  1  2  1  0
  2  3  1  0
  3  4  1  0
  4  5  1  0
  5  6  2  0
  7  5  1  6
  7  8  1  0
  8  9  2  0
  9 10  1  0
 10 11  2  0
 11 12  1  0
 12 13  2  0
 13 14  1  0
 14 15  1  0
 15 16  1  0
 16 17  2  0
 17 18  1  0
 17 19  1  0
 20 19  1  1
 20 21  1  0
 21 22  1  0
 21 23  1  0
  3  1  1  0
 23  7  1  0
 20  9  1  0
 18 10  1  0
 18 14  2  0
M  END
$$$$
