
     RDKit          3D

 24 27  0  0  0  0  0  0  0  0999 V2000
    6.9015    0.0849   -1.0226 C   0  0  0  0  0  0  0  0  0  0  0  0
    5.7577   -0.5951   -0.8669 C   0  0  0  0  0  0  0  0  0  0  0  0
    5.1717   -0.9890    0.4512 C   0  0  0  0  0  0  0  0  0  0  0  0
    3.9715   -0.2115    0.6328 N   0  0  0  0  0  0  0  0  0  0  0  0
    2.7115   -0.7443    0.4424 C   0  0  0  0  0  0  0  0  0  0  0  0
    2.5254   -1.9284    0.1762 O   0  0  0  0  0  0  0  0  0  0  0  0
    1.5802    0.2838    0.5991 C   0  0  2  0  0  0  0  0  0  0  0  0
    0.2461   -0.3886    0.8108 C   0  0  0  0  0  0  0  0  0  0  0  0
   -0.8630   -0.0065    0.1465 C   0  0  0  0  0  0  0  0  0  0  0  0
   -2.1300   -0.7730    0.2566 C   0  0  0  0  0  0  0  0  0  0  0  0
   -2.3202   -2.0761    0.7417 C   0  0  0  0  0  0  0  0  0  0  0  0
   -3.5814   -2.6954    0.7095 C   0  0  0  0  0  0  0  0  0  0  0  0
   -3.7485   -3.9588    1.3042 N   0  0  0  0  0  0  0  0  0  0  0  0
   -4.7140   -1.9832    0.2769 C   0  0  0  0  0  0  0  0  0  0  0  0
   -4.5163   -0.6893   -0.2135 C   0  0  0  0  0  0  0  0  0  0  0  0
   -5.3855    0.2434   -0.7368 N   0  0  0  0  0  0  0  0  0  0  0  0
   -4.7068    1.3949   -1.0725 C   0  0  0  0  0  0  0  0  0  0  0  0
   -3.3830    1.2007   -0.7537 C   0  0  0  0  0  0  0  0  0  0  0  0
   -3.2624   -0.1029   -0.2250 C   0  0  0  0  0  0  0  0  0  0  0  0
   -2.1821    2.0773   -0.8190 C   0  0  0  0  0  0  0  0  0  0  0  0
   -0.8596    1.2196   -0.8216 C   0  0  1  0  0  0  0  0  0  0  0  0
    0.3721    2.0659   -0.7344 N   0  0  0  0  0  0  0  0  0  0  0  0
    0.3434    3.0420    0.3547 C   0  0  0  0  0  0  0  0  0  0  0  0
    1.5625    1.1969   -0.6426 C   0  0  0  0  0  0  0  0  0  0  0  0
  1  2  2  0
  2  3  1  0
  3  4  1  0
  4  5  1  0
  5  6  2  0
  7  5  1  6
  7  8  1  0
  8  9  2  0
  9 10  1  0
 10 11  2  0
 11 12  1  0
 12 13  1  0
 12 14  2  0
 14 15  1  0
 15 16  1  0
 16 17  1  0
 17 18  2  0
 18 19  1  0
 18 20  1  0
 21 20  1  1
 21 22  1  0
 22 23  1  0
 22 24  1  0
 24  7  1  0
 21  9  1  0
 19 10  1  0
 19 15  2  0
M  END
$$$$
