
     RDKit          3D

 24 27  0  0  0  0  0  0  0  0999 V2000
    5.0514    4.0639   -0.7664 C   0  0  0  0  0  0  0  0  0  0  0  0
    4.9386    2.9551   -1.5099 C   0  0  0  0  0  0  0  0  0  0  0  0
    4.6398    1.5959   -0.9661 C   0  0  0  0  0  0  0  0  0  0  0  0
    3.3195    1.2317   -1.4099 N   0  0  0  0  0  0  0  0  0  0  0  0
    2.8712   -0.0699   -1.2754 C   0  0  0  0  0  0  0  0  0  0  0  0
    3.5965   -0.9829   -0.8916 O   0  0  0  0  0  0  0  0  0  0  0  0
    1.3926   -0.2483   -1.6384 C   0  0  2  0  0  0  0  0  0  0  0  0
    0.5239    0.2406   -0.5058 C   0  0  0  0  0  0  0  0  0  0  0  0
   -0.5925   -0.4207   -0.1452 C   0  0  0  0  0  0  0  0  0  0  0  0
   -1.4181    0.0439    0.9946 C   0  0  0  0  0  0  0  0  0  0  0  0
   -1.0288    0.8058    2.1052 C   0  0  0  0  0  0  0  0  0  0  0  0
   -1.9548    1.1816    3.0935 C   0  0  0  0  0  0  0  0  0  0  0  0
   -1.5055    1.8490    4.2465 N   0  0  0  0  0  0  0  0  0  0  0  0
   -3.2800    0.7090    3.0462 C   0  0  0  0  0  0  0  0  0  0  0  0
   -3.6570   -0.0548    1.9375 C   0  0  0  0  0  0  0  0  0  0  0  0
   -4.8509   -0.6405    1.5756 N   0  0  0  0  0  0  0  0  0  0  0  0
   -4.7141   -1.3044    0.3746 C   0  0  0  0  0  0  0  0  0  0  0  0
   -3.4098   -1.1524   -0.0352 C   0  0  0  0  0  0  0  0  0  0  0  0
   -2.7532   -0.3718    0.9395 C   0  0  0  0  0  0  0  0  0  0  0  0
   -2.6468   -1.6291   -1.2233 C   0  0  0  0  0  0  0  0  0  0  0  0
   -1.1009   -1.6845   -0.9131 C   0  0  1  0  0  0  0  0  0  0  0  0
   -0.3389   -1.9494   -2.1735 N   0  0  0  0  0  0  0  0  0  0  0  0
   -0.5477   -3.3192   -2.6524 C   0  0  0  0  0  0  0  0  0  0  0  0
    1.1060   -1.7250   -1.9577 C   0  0  0  0  0  0  0  0  0  0  0  0
  1  2  2  0
  2  3  1  0
  3  4  1  0
  4  5  1  0
  5  6  2  0
  7  5  1  1
  7  8  1  0
  8  9  2  0
  9 10  1  0
 10 11  2  0
 11 12  1  0
 12 13  1  0
 12 14  2  0
 14 15  1  0
 15 16  1  0
 16 17  1  0
 17 18  2  0
 18 19  1  0
 18 20  1  0
 21 20  1  6
 21 22  1  0
 22 23  1  0
 22 24  1  0
 24  7  1  0
 21  9  1  0
 19 10  1  0
 19 15  2  0
M  END
$$$$
