
     RDKit          3D

 24 27  0  0  0  0  0  0  0  0999 V2000
    6.5377   -0.1603    0.3771 C   0  0  0  0  0  0  0  0  0  0  0  0
    6.2792    1.1541    0.3070 C   0  0  0  0  0  0  0  0  0  0  0  0
    4.9408    1.8306    0.2986 C   0  0  0  0  0  0  0  0  0  0  0  0
    3.9044    0.9183   -0.1164 N   0  0  0  0  0  0  0  0  0  0  0  0
    2.5743    1.2327    0.0945 C   0  0  0  0  0  0  0  0  0  0  0  0
    2.2243    2.2355    0.7107 O   0  0  0  0  0  0  0  0  0  0  0  0
    1.5978    0.2169   -0.5203 C   0  0  2  0  0  0  0  0  0  0  0  0
    0.1828    0.7416   -0.5271 C   0  0  0  0  0  0  0  0  0  0  0  0
   -0.8644   -0.0121   -0.1359 C   0  0  0  0  0  0  0  0  0  0  0  0
   -2.2258    0.5670   -0.0083 C   0  0  0  0  0  0  0  0  0  0  0  0
   -2.5947    1.9198    0.0521 C   0  0  0  0  0  0  0  0  0  0  0  0
   -3.9302    2.3091    0.2522 C   0  0  0  0  0  0  0  0  0  0  0  0
   -4.2702    3.6726    0.1979 N   0  0  0  0  0  0  0  0  0  0  0  0
   -4.9536    1.3460    0.2994 C   0  0  0  0  0  0  0  0  0  0  0  0
   -4.5786    0.0004    0.2479 C   0  0  0  0  0  0  0  0  0  0  0  0
   -5.3107   -1.1657    0.3065 N   0  0  0  0  0  0  0  0  0  0  0  0
   -4.4789   -2.2591    0.1981 C   0  0  0  0  0  0  0  0  0  0  0  0
   -3.1941   -1.7874    0.0612 C   0  0  0  0  0  0  0  0  0  0  0  0
   -3.2551   -0.3774    0.1003 C   0  0  0  0  0  0  0  0  0  0  0  0
   -1.8827   -2.4568   -0.1553 C   0  0  0  0  0  0  0  0  0  0  0  0
   -0.6930   -1.5120    0.2648 C   0  0  1  0  0  0  0  0  0  0  0  0
    0.6447   -2.0885   -0.0791 N   0  0  0  0  0  0  0  0  0  0  0  0
    0.7563   -2.5400   -1.4659 C   0  0  0  0  0  0  0  0  0  0  0  0
    1.7030   -1.1130    0.2526 C   0  0  0  0  0  0  0  0  0  0  0  0
  1  2  2  0
  2  3  1  0
  3  4  1  0
  4  5  1  0
  5  6  2  0
  7  5  1  1
  7  8  1  0
  8  9  2  0
  9 10  1  0
 10 11  2  0
 11 12  1  0
 12 13  1  0
 12 14  2  0
 14 15  1  0
 15 16  1  0
 16 17  1  0
 17 18  2  0
 18 19  1  0
 18 20  1  0
 21 20  1  6
 21 22  1  0
 22 23  1  0
 22 24  1  0
 24  7  1  0
 21  9  1  0
 19 10  1  0
 19 15  2  0
M  END
$$$$
