
     RDKit          3D

 24 27  0  0  0  0  0  0  0  0999 V2000
    5.3944    1.1773    1.8409 C   0  0  0  0  0  0  0  0  0  0  0  0
    4.4333    1.7522    1.1055 C   0  0  0  0  0  0  0  0  0  0  0  0
    4.2724    1.5636   -0.3685 C   0  0  0  0  0  0  0  0  0  0  0  0
    3.1013    0.7557   -0.5873 N   0  0  0  0  0  0  0  0  0  0  0  0
    2.7760    0.3244   -1.8572 C   0  0  0  0  0  0  0  0  0  0  0  0
    3.4985    0.5270   -2.8307 O   0  0  0  0  0  0  0  0  0  0  0  0
    1.4580   -0.4494   -1.9713 C   0  0  2  0  0  0  0  0  0  0  0  0
    0.3153    0.3826   -1.4473 C   0  0  0  0  0  0  0  0  0  0  0  0
   -0.6261   -0.1424   -0.6411 C   0  0  0  0  0  0  0  0  0  0  0  0
   -1.6955    0.7090   -0.0673 C   0  0  0  0  0  0  0  0  0  0  0  0
   -1.6956    2.0966    0.1378 C   0  0  0  0  0  0  0  0  0  0  0  0
   -2.7850    2.7462    0.7436 C   0  0  0  0  0  0  0  0  0  0  0  0
   -2.7950    4.1488    0.8299 N   0  0  0  0  0  0  0  0  0  0  0  0
   -3.9512    2.0293    1.0696 C   0  0  0  0  0  0  0  0  0  0  0  0
   -3.9396    0.6463    0.8662 C   0  0  0  0  0  0  0  0  0  0  0  0
   -4.8817   -0.3330    1.0958 N   0  0  0  0  0  0  0  0  0  0  0  0
   -4.3943   -1.5648    0.7133 C   0  0  0  0  0  0  0  0  0  0  0  0
   -3.1251   -1.3717    0.2194 C   0  0  0  0  0  0  0  0  0  0  0  0
   -2.8420    0.0064    0.3190 C   0  0  0  0  0  0  0  0  0  0  0  0
   -2.1110   -2.2856   -0.3759 C   0  0  0  0  0  0  0  0  0  0  0  0
   -0.6630   -1.6654   -0.2856 C   0  0  1  0  0  0  0  0  0  0  0  0
    0.2886   -2.4764   -1.1062 N   0  0  0  0  0  0  0  0  0  0  0  0
    0.4938   -3.8153   -0.5473 C   0  0  0  0  0  0  0  0  0  0  0  0
    1.5895   -1.7933   -1.2363 C   0  0  0  0  0  0  0  0  0  0  0  0
  1  2  2  0
  2  3  1  0
  3  4  1  0
  4  5  1  0
  5  6  2  0
  7  5  1  1
  7  8  1  0
  8  9  2  0
  9 10  1  0
 10 11  2  0
 11 12  1  0
 12 13  1  0
 12 14  2  0
 14 15  1  0
 15 16  1  0
 16 17  1  0
 17 18  2  0
 18 19  1  0
 18 20  1  0
 21 20  1  6
 21 22  1  0
 22 23  1  0
 22 24  1  0
 24  7  1  0
 21  9  1  0
 19 10  1  0
 19 15  2  0
M  END
$$$$
