
     RDKit          3D

 26 30  0  0  0  0  0  0  0  0999 V2000
   -3.0318   -2.2106    0.7017 O   0  0  0  0  0  0  0  0  0  0  0  0
   -2.1483   -1.7658   -0.0483 C   0  0  0  0  0  0  0  0  0  0  0  0
   -2.5116   -0.8085   -1.2006 C   0  0  0  0  0  0  0  0  0  0  0  0
   -2.6197    0.6191   -0.6519 C   0  0  0  0  0  0  0  0  0  0  0  0
   -3.1642    1.5867   -1.6965 C   0  0  0  0  0  0  0  0  0  0  0  0
   -4.4674    1.0599   -2.2840 C   0  0  0  0  0  0  0  0  0  0  0  0
   -4.2916   -0.3610   -2.8099 C   0  0  0  0  0  0  0  0  0  0  0  0
   -3.7922   -1.2748   -1.7862 N   0  0  0  0  0  0  0  0  0  0  0  0
   -0.6800   -2.0709    0.2600 C   0  0  2  0  0  0  0  0  0  0  0  0
   -0.1794   -1.1034    1.2991 C   0  0  0  0  0  0  0  0  0  0  0  0
    0.8189   -0.2426    1.0341 C   0  0  0  0  0  0  0  0  0  0  0  0
    1.4357    0.5715    2.1015 C   0  0  0  0  0  0  0  0  0  0  0  0
    0.8497    1.1088    3.2490 C   0  0  0  0  0  0  0  0  0  0  0  0
    1.6345    1.8300    4.1580 C   0  0  0  0  0  0  0  0  0  0  0  0
    0.8867    2.4892    5.5670 Cl  0  0  0  0  0  0  0  0  0  0  0  0
    3.0132    2.0369    3.9685 C   0  0  0  0  0  0  0  0  0  0  0  0
    3.5781    1.4868    2.8144 C   0  0  0  0  0  0  0  0  0  0  0  0
    4.8630    1.4831    2.3145 N   0  0  0  0  0  0  0  0  0  0  0  0
    4.9115    0.7944    1.1188 C   0  0  0  0  0  0  0  0  0  0  0  0
    3.6403    0.3474    0.8439 C   0  0  0  0  0  0  0  0  0  0  0  0
    2.8111    0.7774    1.9075 C   0  0  0  0  0  0  0  0  0  0  0  0
    3.0394   -0.4296   -0.2860 C   0  0  0  0  0  0  0  0  0  0  0  0
    1.4899   -0.1361   -0.3638 C   0  0  1  0  0  0  0  0  0  0  0  0
    0.7288   -0.8622   -1.4119 N   0  0  0  0  0  0  0  0  0  0  0  0
    1.4221   -0.9475   -2.6914 C   0  0  0  0  0  0  0  0  0  0  0  0
    0.2453   -2.1749   -0.9656 C   0  0  0  0  0  0  0  0  0  0  0  0
  1  2  2  0
  2  3  1  0
  3  4  1  0
  4  5  1  0
  5  6  1  0
  6  7  1  0
  7  8  1  0
  9  2  1  6
  9 10  1  0
 10 11  2  0
 11 12  1  0
 12 13  2  0
 13 14  1  0
 14 15  1  0
 14 16  2  0
 16 17  1  0
 17 18  1  0
 18 19  1  0
 19 20  2  0
 20 21  1  0
 20 22  1  0
 23 22  1  1
 23 24  1  0
 24 25  1  0
 24 26  1  0
  8  3  1  0
 26  9  1  0
 23 11  1  0
 21 12  1  0
 21 17  2  0
M  END
$$$$
