
     RDKit          3D

 26 30  0  0  0  0  0  0  0  0999 V2000
    2.0188    1.4636    1.0389 O   0  0  0  0  0  0  0  0  0  0  0  0
    2.0338    0.6083    0.1469 C   0  0  0  0  0  0  0  0  0  0  0  0
    3.3003    0.3439   -0.6949 C   0  0  0  0  0  0  0  0  0  0  0  0
    3.8251   -1.0784   -0.4459 C   0  0  0  0  0  0  0  0  0  0  0  0
    5.2805   -1.2129   -0.8746 C   0  0  0  0  0  0  0  0  0  0  0  0
    6.1679   -0.1793   -0.1794 C   0  0  0  0  0  0  0  0  0  0  0  0
    5.3719    0.9586    0.4582 C   0  0  0  0  0  0  0  0  0  0  0  0
    4.3020    1.4062   -0.4275 N   0  0  0  0  0  0  0  0  0  0  0  0
    0.7968   -0.2208   -0.2014 C   0  0  2  0  0  0  0  0  0  0  0  0
   -0.3514    0.6877   -0.5470 C   0  0  0  0  0  0  0  0  0  0  0  0
   -1.5988    0.4268   -0.1128 C   0  0  0  0  0  0  0  0  0  0  0  0
   -2.7179    1.3499   -0.4134 C   0  0  0  0  0  0  0  0  0  0  0  0
   -2.6656    2.7177   -0.7042 C   0  0  0  0  0  0  0  0  0  0  0  0
   -3.8449    3.4297   -0.9577 C   0  0  0  0  0  0  0  0  0  0  0  0
   -3.7444    5.1156   -1.3137 Cl  0  0  0  0  0  0  0  0  0  0  0  0
   -5.1108    2.8220   -0.9298 C   0  0  0  0  0  0  0  0  0  0  0  0
   -5.1429    1.4577   -0.6309 C   0  0  0  0  0  0  0  0  0  0  0  0
   -6.1802    0.5572   -0.5160 N   0  0  0  0  0  0  0  0  0  0  0  0
   -5.6939   -0.6942   -0.2015 C   0  0  0  0  0  0  0  0  0  0  0  0
   -4.3248   -0.5970   -0.1128 C   0  0  0  0  0  0  0  0  0  0  0  0
   -3.9820    0.7451   -0.3807 C   0  0  0  0  0  0  0  0  0  0  0  0
   -3.2464   -1.5837    0.1789 C   0  0  0  0  0  0  0  0  0  0  0  0
   -1.9463   -0.8605    0.7042 C   0  0  1  0  0  0  0  0  0  0  0  0
   -0.8126   -1.8370    0.7716 N   0  0  0  0  0  0  0  0  0  0  0  0
   -1.0124   -2.8210    1.8401 C   0  0  0  0  0  0  0  0  0  0  0  0
    0.4650   -1.1328    0.9880 C   0  0  0  0  0  0  0  0  0  0  0  0
  1  2  2  0
  2  3  1  0
  3  4  1  0
  4  5  1  0
  5  6  1  0
  6  7  1  0
  7  8  1  0
  9  2  1  1
  9 10  1  0
 10 11  2  0
 11 12  1  0
 12 13  2  0
 13 14  1  0
 14 15  1  0
 14 16  2  0
 16 17  1  0
 17 18  1  0
 18 19  1  0
 19 20  2  0
 20 21  1  0
 20 22  1  0
 23 22  1  6
 23 24  1  0
 24 25  1  0
 24 26  1  0
  8  3  1  0
 26  9  1  0
 23 11  1  0
 21 12  1  0
 21 17  2  0
M  END
$$$$
