
     RDKit          3D

 26 30  0  0  0  0  0  0  0  0999 V2000
    3.0695    2.3892    1.2901 O   0  0  0  0  0  0  0  0  0  0  0  0
    2.2773    1.6115    0.7458 C   0  0  0  0  0  0  0  0  0  0  0  0
    2.7417    0.2741    0.1283 C   0  0  0  0  0  0  0  0  0  0  0  0
    4.1586    0.4178   -0.4405 C   0  0  0  0  0  0  0  0  0  0  0  0
    4.6344   -0.8840   -1.0824 C   0  0  0  0  0  0  0  0  0  0  0  0
    4.1090   -2.1179   -0.3498 C   0  0  0  0  0  0  0  0  0  0  0  0
    3.6987   -1.7911    1.0813 C   0  0  0  0  0  0  0  0  0  0  0  0
    2.6275   -0.7957    1.1437 N   0  0  0  0  0  0  0  0  0  0  0  0
    0.7972    1.9954    0.6342 C   0  0  2  0  0  0  0  0  0  0  0  0
   -0.1068    0.8890    1.1133 C   0  0  0  0  0  0  0  0  0  0  0  0
   -1.1543    0.4548    0.3856 C   0  0  0  0  0  0  0  0  0  0  0  0
   -1.9301   -0.7433    0.7943 C   0  0  0  0  0  0  0  0  0  0  0  0
   -1.5874   -1.7156    1.7442 C   0  0  0  0  0  0  0  0  0  0  0  0
   -2.4182   -2.8227    1.9598 C   0  0  0  0  0  0  0  0  0  0  0  0
   -1.9543   -4.0005    3.1326 Cl  0  0  0  0  0  0  0  0  0  0  0  0
   -3.6103   -3.0156    1.2465 C   0  0  0  0  0  0  0  0  0  0  0  0
   -3.9394   -2.0379    0.3053 C   0  0  0  0  0  0  0  0  0  0  0  0
   -5.0093   -1.9087   -0.5546 N   0  0  0  0  0  0  0  0  0  0  0  0
   -4.8967   -0.7457   -1.2843 C   0  0  0  0  0  0  0  0  0  0  0  0
   -3.7357   -0.1220   -0.8920 C   0  0  0  0  0  0  0  0  0  0  0  0
   -3.1293   -0.9339    0.0906 C   0  0  0  0  0  0  0  0  0  0  0  0
   -3.1058    1.1741   -1.2628 C   0  0  0  0  0  0  0  0  0  0  0  0
   -1.5626    1.1570   -0.9496 C   0  0  1  0  0  0  0  0  0  0  0  0
   -0.9306    2.4970   -1.1486 N   0  0  0  0  0  0  0  0  0  0  0  0
   -1.5895    3.5792   -0.4138 C   0  0  0  0  0  0  0  0  0  0  0  0
    0.5040    2.4329   -0.8137 C   0  0  0  0  0  0  0  0  0  0  0  0
  1  2  2  0
  2  3  1  0
  3  4  1  0
  4  5  1  0
  5  6  1  0
  6  7  1  0
  7  8  1  0
  9  2  1  6
  9 10  1  0
 10 11  2  0
 11 12  1  0
 12 13  2  0
 13 14  1  0
 14 15  1  0
 14 16  2  0
 16 17  1  0
 17 18  1  0
 18 19  1  0
 19 20  2  0
 20 21  1  0
 20 22  1  0
 23 22  1  1
 23 24  1  0
 24 25  1  0
 24 26  1  0
  8  3  1  0
 26  9  1  0
 23 11  1  0
 21 12  1  0
 21 17  2  0
M  END
$$$$
