
     RDKit          3D

 26 30  0  0  0  0  0  0  0  0999 V2000
    1.7500    1.6323    1.1559 O   0  0  0  0  0  0  0  0  0  0  0  0
    1.8902    0.8811    0.1848 C   0  0  0  0  0  0  0  0  0  0  0  0
    3.2975    0.5118   -0.3163 C   0  0  0  0  0  0  0  0  0  0  0  0
    3.9727   -0.4486    0.6631 C   0  0  0  0  0  0  0  0  0  0  0  0
    5.3610   -0.8552    0.1704 C   0  0  0  0  0  0  0  0  0  0  0  0
    6.0271    0.2407   -0.6613 C   0  0  0  0  0  0  0  0  0  0  0  0
    5.5014    1.6222   -0.2873 C   0  0  0  0  0  0  0  0  0  0  0  0
    4.0603    1.7625   -0.5161 N   0  0  0  0  0  0  0  0  0  0  0  0
    0.7051    0.3030   -0.6040 C   0  0  2  0  0  0  0  0  0  0  0  0
   -0.5969    0.9468   -0.1877 C   0  0  0  0  0  0  0  0  0  0  0  0
   -1.7096    0.2270    0.0599 C   0  0  0  0  0  0  0  0  0  0  0  0
   -2.9333    0.8654    0.6074 C   0  0  0  0  0  0  0  0  0  0  0  0
   -3.0561    2.1185    1.2224 C   0  0  0  0  0  0  0  0  0  0  0  0
   -4.2923    2.5452    1.7239 C   0  0  0  0  0  0  0  0  0  0  0  0
   -4.4025    4.0957    2.4740 Cl  0  0  0  0  0  0  0  0  0  0  0  0
   -5.4470    1.7520    1.6466 C   0  0  0  0  0  0  0  0  0  0  0  0
   -5.3072    0.5030    1.0375 C   0  0  0  0  0  0  0  0  0  0  0  0
   -6.2064   -0.5150    0.8019 N   0  0  0  0  0  0  0  0  0  0  0  0
   -5.5864   -1.5582    0.1496 C   0  0  0  0  0  0  0  0  0  0  0  0
   -4.2690   -1.2079   -0.0318 C   0  0  0  0  0  0  0  0  0  0  0  0
   -4.0908    0.0752    0.5295 C   0  0  0  0  0  0  0  0  0  0  0  0
   -3.1214   -1.8801   -0.6999 C   0  0  0  0  0  0  0  0  0  0  0  0
   -1.7520   -1.3185   -0.1591 C   0  0  1  0  0  0  0  0  0  0  0  0
   -0.5749   -1.8601   -0.9062 N   0  0  0  0  0  0  0  0  0  0  0  0
   -0.6893   -1.7409   -2.3603 C   0  0  0  0  0  0  0  0  0  0  0  0
    0.6608   -1.2245   -0.4137 C   0  0  0  0  0  0  0  0  0  0  0  0
  1  2  2  0
  2  3  1  0
  3  4  1  0
  4  5  1  0
  5  6  1  0
  6  7  1  0
  7  8  1  0
  9  2  1  1
  9 10  1  0
 10 11  2  0
 11 12  1  0
 12 13  2  0
 13 14  1  0
 14 15  1  0
 14 16  2  0
 16 17  1  0
 17 18  1  0
 18 19  1  0
 19 20  2  0
 20 21  1  0
 20 22  1  0
 23 22  1  6
 23 24  1  0
 24 25  1  0
 24 26  1  0
  8  3  1  0
 26  9  1  0
 23 11  1  0
 21 12  1  0
 21 17  2  0
M  END
$$$$
