
     RDKit          3D

 24 27  0  0  0  0  0  0  0  0999 V2000
    2.9194    0.7457    2.2053 C   0  0  0  0  0  0  0  0  0  0  0  0
    2.2171    1.1423    0.9147 C   0  0  0  0  0  0  0  0  0  0  0  0
    2.9681    0.7730   -0.2917 N   0  0  0  0  0  0  0  0  0  0  0  0
    4.2636    1.4357   -0.4830 C   0  0  0  0  0  0  0  0  0  0  0  0
    5.4399    0.5142   -0.1913 C   0  0  0  0  0  0  0  0  0  0  0  0
    2.5205   -0.0428   -1.3290 C   0  0  0  0  0  0  0  0  0  0  0  0
    3.2145   -0.2038   -2.3429 O   0  0  0  0  0  0  0  0  0  0  0  0
    1.1696   -0.7788   -1.2675 C   0  0  2  0  0  0  0  0  0  0  0  0
   -0.0132    0.1551   -1.2141 C   0  0  0  0  0  0  0  0  0  0  0  0
   -1.0669   -0.0877   -0.4084 C   0  0  0  0  0  0  0  0  0  0  0  0
   -2.1546    0.9089   -0.2426 C   0  0  0  0  0  0  0  0  0  0  0  0
   -2.1619    2.2586   -0.6214 C   0  0  0  0  0  0  0  0  0  0  0  0
   -3.2618    3.0809   -0.3370 C   0  0  0  0  0  0  0  0  0  0  0  0
   -4.3904    2.5965    0.3405 C   0  0  0  0  0  0  0  0  0  0  0  0
   -4.3713    1.2515    0.7135 C   0  0  0  0  0  0  0  0  0  0  0  0
   -5.2888    0.4659    1.3777 N   0  0  0  0  0  0  0  0  0  0  0  0
   -4.8184   -0.8235    1.4966 C   0  0  0  0  0  0  0  0  0  0  0  0
   -3.5779   -0.8659    0.9044 C   0  0  0  0  0  0  0  0  0  0  0  0
   -3.2918    0.4314    0.4261 C   0  0  0  0  0  0  0  0  0  0  0  0
   -2.6050   -1.9653    0.6633 C   0  0  0  0  0  0  0  0  0  0  0  0
   -1.1530   -1.3931    0.4498 C   0  0  1  0  0  0  0  0  0  0  0  0
   -0.1783   -2.4580    0.0564 N   0  0  0  0  0  0  0  0  0  0  0  0
   -0.6069   -3.2523   -1.0968 C   0  0  0  0  0  0  0  0  0  0  0  0
    1.1555   -1.8657   -0.1792 C   0  0  0  0  0  0  0  0  0  0  0  0
  1  2  1  0
  2  3  1  0
  3  4  1  0
  4  5  1  0
  3  6  1  0
  6  7  2  0
  8  6  1  1
  8  9  1  0
  9 10  2  0
 10 11  1  0
 11 12  2  0
 12 13  1  0
 13 14  2  0
 14 15  1  0
 15 16  1  0
 16 17  1  0
 17 18  2  0
 18 19  1  0
 18 20  1  0
 21 20  1  6
 21 22  1  0
 22 23  1  0
 22 24  1  0
 24  8  1  0
 21 10  1  0
 19 11  1  0
 19 15  2  0
M  END
$$$$
