
     RDKit          3D

 24 27  0  0  0  0  0  0  0  0999 V2000
    4.6389   -1.7756   -0.2643 C   0  0  0  0  0  0  0  0  0  0  0  0
    3.9806   -0.5248   -0.8317 C   0  0  0  0  0  0  0  0  0  0  0  0
    3.5547    0.4135    0.2147 N   0  0  0  0  0  0  0  0  0  0  0  0
    4.6138    1.1679    0.8945 C   0  0  0  0  0  0  0  0  0  0  0  0
    4.9559    2.4593    0.1652 C   0  0  0  0  0  0  0  0  0  0  0  0
    2.2344    0.7875    0.4914 C   0  0  0  0  0  0  0  0  0  0  0  0
    1.9947    1.6617    1.3323 O   0  0  0  0  0  0  0  0  0  0  0  0
    1.0820    0.0804   -0.2510 C   0  0  2  0  0  0  0  0  0  0  0  0
   -0.1733    0.9199   -0.2253 C   0  0  0  0  0  0  0  0  0  0  0  0
   -1.3859    0.3748   -0.0155 C   0  0  0  0  0  0  0  0  0  0  0  0
   -2.5983    1.2225    0.0598 C   0  0  0  0  0  0  0  0  0  0  0  0
   -2.6977    2.5761    0.4008 C   0  0  0  0  0  0  0  0  0  0  0  0
   -3.9456    3.2156    0.4278 C   0  0  0  0  0  0  0  0  0  0  0  0
   -5.1346    2.5336    0.1208 C   0  0  0  0  0  0  0  0  0  0  0  0
   -5.0183    1.1820   -0.2110 C   0  0  0  0  0  0  0  0  0  0  0  0
   -5.9510    0.2275   -0.5556 N   0  0  0  0  0  0  0  0  0  0  0  0
   -5.3338   -0.9822   -0.7967 C   0  0  0  0  0  0  0  0  0  0  0  0
   -3.9836   -0.8026   -0.6046 C   0  0  0  0  0  0  0  0  0  0  0  0
   -3.7884    0.5468   -0.2402 C   0  0  0  0  0  0  0  0  0  0  0  0
   -2.8030   -1.7053   -0.7182 C   0  0  0  0  0  0  0  0  0  0  0  0
   -1.5935   -1.1636    0.1386 C   0  0  1  0  0  0  0  0  0  0  0  0
   -0.3599   -1.9561   -0.1644 N   0  0  0  0  0  0  0  0  0  0  0  0
   -0.4531   -3.3191    0.3670 C   0  0  0  0  0  0  0  0  0  0  0  0
    0.8348   -1.2918    0.3952 C   0  0  0  0  0  0  0  0  0  0  0  0
  1  2  1  0
  2  3  1  0
  3  4  1  0
  4  5  1  0
  3  6  1  0
  6  7  2  0
  8  6  1  1
  8  9  1  0
  9 10  2  0
 10 11  1  0
 11 12  2  0
 12 13  1  0
 13 14  2  0
 14 15  1  0
 15 16  1  0
 16 17  1  0
 17 18  2  0
 18 19  1  0
 18 20  1  0
 21 20  1  6
 21 22  1  0
 22 23  1  0
 22 24  1  0
 24  8  1  0
 21 10  1  0
 19 11  1  0
 19 15  2  0
M  END
$$$$
