
     RDKit          3D

 24 27  0  0  0  0  0  0  0  0999 V2000
    5.5281    0.7808   -0.5837 C   0  0  0  0  0  0  0  0  0  0  0  0
    4.4020   -0.0514   -1.1807 C   0  0  0  0  0  0  0  0  0  0  0  0
    3.2502   -0.1563   -0.2775 N   0  0  0  0  0  0  0  0  0  0  0  0
    3.2861   -1.2424    0.7090 C   0  0  0  0  0  0  0  0  0  0  0  0
    3.0294   -2.6086    0.0867 C   0  0  0  0  0  0  0  0  0  0  0  0
    2.3236    0.8957   -0.3086 C   0  0  0  0  0  0  0  0  0  0  0  0
    2.4940    1.8442   -1.0814 O   0  0  0  0  0  0  0  0  0  0  0  0
    1.1067    0.8599    0.6441 C   0  0  2  0  0  0  0  0  0  0  0  0
    0.1183   -0.2218    0.2838 C   0  0  0  0  0  0  0  0  0  0  0  0
   -1.1630    0.0436   -0.0229 C   0  0  0  0  0  0  0  0  0  0  0  0
   -2.1695   -1.0357   -0.1196 C   0  0  0  0  0  0  0  0  0  0  0  0
   -2.0216   -2.3440   -0.5832 C   0  0  0  0  0  0  0  0  0  0  0  0
   -3.1102   -3.2283   -0.5534 C   0  0  0  0  0  0  0  0  0  0  0  0
   -4.3704   -2.8440   -0.0584 C   0  0  0  0  0  0  0  0  0  0  0  0
   -4.4967   -1.5311    0.4029 C   0  0  0  0  0  0  0  0  0  0  0  0
   -5.5528   -0.8274    0.9422 N   0  0  0  0  0  0  0  0  0  0  0  0
   -5.1707    0.4656    1.2408 C   0  0  0  0  0  0  0  0  0  0  0  0
   -3.8482    0.5992    0.8887 C   0  0  0  0  0  0  0  0  0  0  0  0
   -3.4291   -0.6526    0.3715 C   0  0  0  0  0  0  0  0  0  0  0  0
   -2.8690    1.7331    0.9353 C   0  0  0  0  0  0  0  0  0  0  0  0
   -1.7345    1.4758   -0.1252 C   0  0  1  0  0  0  0  0  0  0  0  0
   -0.7254    2.5576   -0.0959 N   0  0  0  0  0  0  0  0  0  0  0  0
   -0.2770    2.8844   -1.4517 C   0  0  0  0  0  0  0  0  0  0  0  0
    0.4157    2.2458    0.7874 C   0  0  0  0  0  0  0  0  0  0  0  0
  1  2  1  0
  2  3  1  0
  3  4  1  0
  4  5  1  0
  3  6  1  0
  6  7  2  0
  8  6  1  6
  8  9  1  0
  9 10  2  0
 10 11  1  0
 11 12  2  0
 12 13  1  0
 13 14  2  0
 14 15  1  0
 15 16  1  0
 16 17  1  0
 17 18  2  0
 18 19  1  0
 18 20  1  0
 21 20  1  1
 21 22  1  0
 22 23  1  0
 22 24  1  0
 24  8  1  0
 21 10  1  0
 19 11  1  0
 19 15  2  0
M  END
$$$$
