MODEL 1
REMARK VINA RESULT:    -9.548      0.000      0.000
REMARK INTER + INTRA:         -13.069
REMARK INTER:                 -12.339
REMARK INTRA:                  -0.730
REMARK UNBOUND:                -0.730
REMARK SMILES CCC(=O)n1cc2c3c(cccc31)C1=C[C@@H](C(=O)N(CC)CC)CN(C)[C@@H]1C2
REMARK SMILES IDX 25 1 5 2 27 3 14 4 28 5 16 6 24 7 7 8 9 9 8 10 15 11 13 12
REMARK SMILES IDX 6 13 26 14 10 15 12 16 11 17 17 18 18 19 19 20 20 21 21 22
REMARK SMILES IDX 22 23 23 24 3 25 4 26 2 27 1 28
REMARK H PARENT
ROOT
ATOM      1  N   UNL     1     -12.235 -19.563  18.772  1.00  0.00    -0.298 NA
ATOM      2  N   UNL     1      -8.464 -20.297  23.421  1.00  0.00    -0.287 N 
ATOM      3  C   UNL     1     -11.009 -19.636  19.599  1.00  0.00     0.091 C 
ATOM      4  C   UNL     1     -10.064 -18.414  19.503  1.00  0.00    -0.026 C 
ATOM      5  C   UNL     1     -11.376 -19.968  21.090  1.00  0.00     0.061 C 
ATOM      6  C   UNL     1     -11.711 -17.129  18.145  1.00  0.00     0.116 C 
ATOM      7  C   UNL     1     -12.737 -18.182  18.631  1.00  0.00     0.102 C 
ATOM      8  C   UNL     1     -10.126 -19.992  21.912  1.00  0.00    -0.019 A 
ATOM      9  C   UNL     1      -8.833 -18.501  20.321  1.00  0.00    -0.011 A 
ATOM     10  C   UNL     1      -8.984 -19.286  21.482  1.00  0.00     0.011 A 
ATOM     11  C   UNL     1     -10.379 -17.296  18.823  1.00  0.00    -0.007 C 
ATOM     12  C   UNL     1      -7.951 -19.473  22.401  1.00  0.00     0.056 A 
ATOM     13  C   UNL     1      -9.792 -20.599  23.092  1.00  0.00     0.099 A 
ATOM     14  C   UNL     1     -12.051 -20.201  17.470  1.00  0.00     0.106 C 
ATOM     15  C   UNL     1      -7.603 -17.892  20.085  1.00  0.00     0.009 A 
ATOM     16  C   UNL     1      -6.708 -18.855  22.151  1.00  0.00     0.027 A 
ATOM     17  C   UNL     1      -6.558 -18.074  20.991  1.00  0.00     0.003 A 
ENDROOT
BRANCH   6  18
ATOM     18  C   UNL     1     -11.751 -16.947  16.605  1.00  0.00     0.230 C 
ATOM     19  O   UNL     1     -10.929 -17.519  15.882  1.00  0.00    -0.274 OA
ATOM     20  N   UNL     1     -12.873 -16.305  16.055  1.00  0.00    -0.343 N 
BRANCH  20  21
ATOM     21  C   UNL     1     -12.965 -14.848  16.227  1.00  0.00     0.116 C 
ATOM     22  C   UNL     1     -14.132 -14.403  17.102  1.00  0.00     0.027 C 
ENDBRANCH  20  21
BRANCH  20  23
ATOM     23  C   UNL     1     -13.309 -16.842  14.762  1.00  0.00     0.116 C 
ATOM     24  C   UNL     1     -13.032 -15.919  13.586  1.00  0.00     0.027 C 
ENDBRANCH  20  23
ENDBRANCH   6  18
BRANCH   2  25
ATOM     25  C   UNL     1      -7.861 -20.797  24.602  1.00  0.00     0.230 C 
ATOM     26  O   UNL     1      -6.663 -21.068  24.582  1.00  0.00    -0.274 OA
BRANCH  25  27
ATOM     27  C   UNL     1      -8.743 -20.964  25.807  1.00  0.00     0.097 C 
ATOM     28  C   UNL     1      -8.856 -19.673  26.607  1.00  0.00     0.014 C 
ENDBRANCH  25  27
ENDBRANCH   2  25
TORSDOF 5
ENDMDL
MODEL 2
REMARK VINA RESULT:    -9.421      2.202      2.955
REMARK INTER + INTRA:         -12.906
REMARK INTER:                 -12.216
REMARK INTRA:                  -0.690
REMARK UNBOUND:                -0.730
REMARK SMILES CCC(=O)n1cc2c3c(cccc31)C1=C[C@@H](C(=O)N(CC)CC)CN(C)[C@@H]1C2
REMARK SMILES IDX 25 1 5 2 27 3 14 4 28 5 16 6 24 7 7 8 9 9 8 10 15 11 13 12
REMARK SMILES IDX 6 13 26 14 10 15 12 16 11 17 17 18 18 19 19 20 20 21 21 22
REMARK SMILES IDX 22 23 23 24 3 25 4 26 2 27 1 28
REMARK H PARENT
ROOT
ATOM      1  N   UNL     1     -14.349 -17.626  21.345  1.00  0.00    -0.298 NA
ATOM      2  N   UNL     1      -9.886 -19.778  24.782  1.00  0.00    -0.287 N 
ATOM      3  C   UNL     1     -13.143 -18.352  21.803  1.00  0.00     0.091 C 
ATOM      4  C   UNL     1     -11.882 -18.177  20.922  1.00  0.00    -0.026 C 
ATOM      5  C   UNL     1     -12.847 -18.021  23.309  1.00  0.00     0.061 C 
ATOM      6  C   UNL     1     -12.984 -16.430  19.528  1.00  0.00     0.116 C 
ATOM      7  C   UNL     1     -14.019 -16.351  20.678  1.00  0.00     0.102 C 
ATOM      8  C   UNL     1     -11.599 -18.731  23.735  1.00  0.00    -0.019 A 
ATOM      9  C   UNL     1     -10.684 -18.918  21.378  1.00  0.00    -0.011 A 
ATOM     10  C   UNL     1     -10.645 -19.119  22.772  1.00  0.00     0.011 A 
ATOM     11  C   UNL     1     -11.829 -17.325  19.881  1.00  0.00    -0.007 C 
ATOM     12  C   UNL     1      -9.587 -19.772  23.407  1.00  0.00     0.056 A 
ATOM     13  C   UNL     1     -11.121 -19.139  24.950  1.00  0.00     0.099 A 
ATOM     14  C   UNL     1     -15.201 -18.464  20.504  1.00  0.00     0.106 C 
ATOM     15  C   UNL     1      -9.627 -19.394  20.607  1.00  0.00     0.009 A 
ATOM     16  C   UNL     1      -8.523 -20.253  22.617  1.00  0.00     0.027 A 
ATOM     17  C   UNL     1      -8.565 -20.055  21.224  1.00  0.00     0.003 A 
ENDROOT
BRANCH   6  18
ATOM     18  C   UNL     1     -13.665 -16.594  18.144  1.00  0.00     0.230 C 
ATOM     19  O   UNL     1     -14.555 -15.817  17.785  1.00  0.00    -0.274 OA
ATOM     20  N   UNL     1     -13.088 -17.500  17.239  1.00  0.00    -0.343 N 
BRANCH  20  21
ATOM     21  C   UNL     1     -13.284 -18.932  17.504  1.00  0.00     0.116 C 
ATOM     22  C   UNL     1     -12.032 -19.777  17.288  1.00  0.00     0.027 C 
ENDBRANCH  20  21
BRANCH  20  23
ATOM     23  C   UNL     1     -13.144 -17.077  15.836  1.00  0.00     0.116 C 
ATOM     24  C   UNL     1     -11.814 -16.587  15.286  1.00  0.00     0.027 C 
ENDBRANCH  20  23
ENDBRANCH   6  18
BRANCH   2  25
ATOM     25  C   UNL     1      -9.165 -20.297  25.887  1.00  0.00     0.230 C 
ATOM     26  O   UNL     1      -9.170 -19.668  26.941  1.00  0.00    -0.274 OA
BRANCH  25  27
ATOM     27  C   UNL     1      -8.436 -21.596  25.683  1.00  0.00     0.097 C 
ATOM     28  C   UNL     1      -6.938 -21.381  25.510  1.00  0.00     0.014 C 
ENDBRANCH  25  27
ENDBRANCH   2  25
TORSDOF 5
ENDMDL
MODEL 3
REMARK VINA RESULT:    -9.319      1.833      2.241
REMARK INTER + INTRA:         -12.773
REMARK INTER:                 -11.924
REMARK INTRA:                  -0.849
REMARK UNBOUND:                -0.730
REMARK SMILES CCC(=O)n1cc2c3c(cccc31)C1=C[C@@H](C(=O)N(CC)CC)CN(C)[C@@H]1C2
REMARK SMILES IDX 25 1 5 2 27 3 14 4 28 5 16 6 24 7 7 8 9 9 8 10 15 11 13 12
REMARK SMILES IDX 6 13 26 14 10 15 12 16 11 17 17 18 18 19 19 20 20 21 21 22
REMARK SMILES IDX 22 23 23 24 3 25 4 26 2 27 1 28
REMARK H PARENT
ROOT
ATOM      1  N   UNL     1     -13.841 -18.233  20.734  1.00  0.00    -0.298 NA
ATOM      2  N   UNL     1      -9.662 -19.861  24.766  1.00  0.00    -0.287 N 
ATOM      3  C   UNL     1     -12.639 -18.829  21.361  1.00  0.00     0.091 C 
ATOM      4  C   UNL     1     -11.300 -18.555  20.635  1.00  0.00    -0.026 C 
ATOM      5  C   UNL     1     -12.566 -18.434  22.880  1.00  0.00     0.061 C 
ATOM      6  C   UNL     1     -12.376 -16.956  19.055  1.00  0.00     0.116 C 
ATOM      7  C   UNL     1     -13.550 -16.949  20.066  1.00  0.00     0.102 C 
ATOM      8  C   UNL     1     -11.321 -19.009  23.479  1.00  0.00    -0.019 A 
ATOM      9  C   UNL     1     -10.106 -19.166  21.260  1.00  0.00    -0.011 A 
ATOM     10  C   UNL     1     -10.222 -19.328  22.655  1.00  0.00     0.011 A 
ATOM     11  C   UNL     1     -11.197 -17.728  19.579  1.00  0.00    -0.007 C 
ATOM     12  C   UNL     1      -9.196 -19.860  23.437  1.00  0.00     0.056 A 
ATOM     13  C   UNL     1     -10.963 -19.340  24.758  1.00  0.00     0.099 A 
ATOM     14  C   UNL     1     -14.501 -19.170  19.826  1.00  0.00     0.106 C 
ATOM     15  C   UNL     1      -8.921 -19.556  20.642  1.00  0.00     0.009 A 
ATOM     16  C   UNL     1      -8.002 -20.255  22.801  1.00  0.00     0.027 A 
ATOM     17  C   UNL     1      -7.887 -20.096  21.408  1.00  0.00     0.003 A 
ENDROOT
BRANCH   6  18
ATOM     18  C   UNL     1     -12.861 -17.220  17.605  1.00  0.00     0.230 C 
ATOM     19  O   UNL     1     -12.530 -18.248  17.007  1.00  0.00    -0.274 OA
ATOM     20  N   UNL     1     -13.857 -16.373  17.089  1.00  0.00    -0.343 N 
BRANCH  20  21
ATOM     21  C   UNL     1     -13.451 -15.014  16.705  1.00  0.00     0.116 C 
ATOM     22  C   UNL     1     -13.986 -13.926  17.629  1.00  0.00     0.027 C 
ENDBRANCH  20  21
BRANCH  20  23
ATOM     23  C   UNL     1     -14.830 -17.040  16.217  1.00  0.00     0.116 C 
ATOM     24  C   UNL     1     -16.158 -16.307  16.104  1.00  0.00     0.027 C 
ENDBRANCH  20  23
ENDBRANCH   6  18
BRANCH   2  25
ATOM     25  C   UNL     1      -9.040 -20.281  25.967  1.00  0.00     0.230 C 
ATOM     26  O   UNL     1      -9.108 -19.550  26.952  1.00  0.00    -0.274 OA
BRANCH  25  27
ATOM     27  C   UNL     1      -8.331 -21.606  25.949  1.00  0.00     0.097 C 
ATOM     28  C   UNL     1      -9.282 -22.751  25.628  1.00  0.00     0.014 C 
ENDBRANCH  25  27
ENDBRANCH   2  25
TORSDOF 5
ENDMDL
MODEL 4
REMARK VINA RESULT:    -9.115      2.819      4.307
REMARK INTER + INTRA:         -12.510
REMARK INTER:                 -11.977
REMARK INTRA:                  -0.533
REMARK UNBOUND:                -0.730
REMARK SMILES CCC(=O)n1cc2c3c(cccc31)C1=C[C@@H](C(=O)N(CC)CC)CN(C)[C@@H]1C2
REMARK SMILES IDX 25 1 5 2 27 3 14 4 28 5 16 6 24 7 7 8 9 9 8 10 15 11 13 12
REMARK SMILES IDX 6 13 26 14 10 15 12 16 11 17 17 18 18 19 19 20 20 21 21 22
REMARK SMILES IDX 22 23 23 24 3 25 4 26 2 27 1 28
REMARK H PARENT
ROOT
ATOM      1  N   UNL     1     -12.648 -17.335  16.174  1.00  0.00    -0.298 NA
ATOM      2  N   UNL     1     -11.101 -19.398  21.625  1.00  0.00    -0.287 N 
ATOM      3  C   UNL     1     -12.400 -17.431  17.630  1.00  0.00     0.091 C 
ATOM      4  C   UNL     1     -13.573 -16.988  18.538  1.00  0.00    -0.026 C 
ATOM      5  C   UNL     1     -11.890 -18.869  18.003  1.00  0.00     0.061 C 
ATOM      6  C   UNL     1     -15.113 -16.754  16.593  1.00  0.00     0.116 C 
ATOM      7  C   UNL     1     -14.059 -17.588  15.824  1.00  0.00     0.102 C 
ATOM      8  C   UNL     1     -11.691 -18.953  19.484  1.00  0.00    -0.019 A 
ATOM      9  C   UNL     1     -13.313 -17.072  19.993  1.00  0.00    -0.011 A 
ATOM     10  C   UNL     1     -12.388 -18.077  20.341  1.00  0.00     0.011 A 
ATOM     11  C   UNL     1     -14.787 -16.660  18.058  1.00  0.00    -0.007 C 
ATOM     12  C   UNL     1     -12.026 -18.338  21.663  1.00  0.00     0.056 A 
ATOM     13  C   UNL     1     -10.915 -19.749  20.281  1.00  0.00     0.099 A 
ATOM     14  C   UNL     1     -12.181 -16.062  15.626  1.00  0.00     0.106 C 
ATOM     15  C   UNL     1     -13.884 -16.311  21.010  1.00  0.00     0.009 A 
ATOM     16  C   UNL     1     -12.606 -17.559  22.686  1.00  0.00     0.027 A 
ATOM     17  C   UNL     1     -13.528 -16.555  22.337  1.00  0.00     0.003 A 
ENDROOT
BRANCH   6  18
ATOM     18  C   UNL     1     -15.502 -15.462  15.827  1.00  0.00     0.230 C 
ATOM     19  O   UNL     1     -14.718 -14.510  15.760  1.00  0.00    -0.274 OA
ATOM     20  N   UNL     1     -16.661 -15.499  15.035  1.00  0.00    -0.343 N 
BRANCH  20  21
ATOM     21  C   UNL     1     -17.954 -15.472  15.733  1.00  0.00     0.116 C 
ATOM     22  C   UNL     1     -18.021 -14.455  16.868  1.00  0.00     0.027 C 
ENDBRANCH  20  21
BRANCH  20  23
ATOM     23  C   UNL     1     -16.571 -14.733  13.787  1.00  0.00     0.116 C 
ATOM     24  C   UNL     1     -17.911 -14.516  13.100  1.00  0.00     0.027 C 
ENDBRANCH  20  23
ENDBRANCH   6  18
BRANCH   2  25
ATOM     25  C   UNL     1     -10.416 -20.071  22.668  1.00  0.00     0.230 C 
ATOM     26  O   UNL     1     -11.072 -20.707  23.488  1.00  0.00    -0.274 OA
BRANCH  25  27
ATOM     27  C   UNL     1      -8.918 -19.953  22.695  1.00  0.00     0.097 C 
ATOM     28  C   UNL     1      -8.401 -19.639  24.092  1.00  0.00     0.014 C 
ENDBRANCH  25  27
ENDBRANCH   2  25
TORSDOF 5
ENDMDL
MODEL 5
REMARK VINA RESULT:    -9.005      2.299      3.430
REMARK INTER + INTRA:         -12.367
REMARK INTER:                 -11.724
REMARK INTRA:                  -0.643
REMARK UNBOUND:                -0.730
REMARK SMILES CCC(=O)n1cc2c3c(cccc31)C1=C[C@@H](C(=O)N(CC)CC)CN(C)[C@@H]1C2
REMARK SMILES IDX 25 1 5 2 27 3 14 4 28 5 16 6 24 7 7 8 9 9 8 10 15 11 13 12
REMARK SMILES IDX 6 13 26 14 10 15 12 16 11 17 17 18 18 19 19 20 20 21 21 22
REMARK SMILES IDX 22 23 23 24 3 25 4 26 2 27 1 28
REMARK H PARENT
ROOT
ATOM      1  N   UNL     1     -11.099 -18.766  18.305  1.00  0.00    -0.298 NA
ATOM      2  N   UNL     1     -10.558 -20.063  24.169  1.00  0.00    -0.287 N 
ATOM      3  C   UNL     1     -11.224 -18.721  19.779  1.00  0.00     0.091 C 
ATOM      4  C   UNL     1     -12.665 -18.573  20.324  1.00  0.00    -0.026 C 
ATOM      5  C   UNL     1     -10.483 -19.945  20.427  1.00  0.00     0.061 C 
ATOM      6  C   UNL     1     -13.652 -18.862  18.054  1.00  0.00     0.116 C 
ATOM      7  C   UNL     1     -12.259 -19.413  17.661  1.00  0.00     0.102 C 
ATOM      8  C   UNL     1     -10.662 -19.900  21.913  1.00  0.00    -0.019 A 
ATOM      9  C   UNL     1     -12.781 -18.513  21.798  1.00  0.00    -0.011 A 
ATOM     10  C   UNL     1     -11.756 -19.208  22.471  1.00  0.00     0.011 A 
ATOM     11  C   UNL     1     -13.754 -18.612  19.533  1.00  0.00    -0.007 C 
ATOM     12  C   UNL     1     -11.697 -19.296  23.863  1.00  0.00     0.056 A 
ATOM     13  C   UNL     1      -9.946 -20.414  22.959  1.00  0.00     0.099 A 
ATOM     14  C   UNL     1     -10.843 -17.443  17.740  1.00  0.00     0.106 C 
ATOM     15  C   UNL     1     -13.769 -17.889  22.555  1.00  0.00     0.009 A 
ATOM     16  C   UNL     1     -12.701 -18.658  24.620  1.00  0.00     0.027 A 
ATOM     17  C   UNL     1     -13.722 -17.961  23.947  1.00  0.00     0.003 A 
ENDROOT
BRANCH   6  18
ATOM     18  C   UNL     1     -14.140 -17.764  17.072  1.00  0.00     0.230 C 
ATOM     19  O   UNL     1     -14.123 -17.958  15.853  1.00  0.00    -0.274 OA
ATOM     20  N   UNL     1     -14.803 -16.652  17.618  1.00  0.00    -0.343 N 
BRANCH  20  21
ATOM     21  C   UNL     1     -13.980 -15.657  18.319  1.00  0.00     0.116 C 
ATOM     22  C   UNL     1     -14.574 -15.188  19.644  1.00  0.00     0.027 C 
ENDBRANCH  20  21
BRANCH  20  23
ATOM     23  C   UNL     1     -15.902 -16.135  16.796  1.00  0.00     0.116 C 
ATOM     24  C   UNL     1     -15.583 -14.823  16.097  1.00  0.00     0.027 C 
ENDBRANCH  20  23
ENDBRANCH   6  18
BRANCH   2  25
ATOM     25  C   UNL     1     -10.021 -20.472  25.416  1.00  0.00     0.230 C 
ATOM     26  O   UNL     1     -10.289 -19.812  26.417  1.00  0.00    -0.274 OA
BRANCH  25  27
ATOM     27  C   UNL     1      -9.152 -21.698  25.422  1.00  0.00     0.097 C 
ATOM     28  C   UNL     1      -7.719 -21.372  25.822  1.00  0.00     0.014 C 
ENDBRANCH  25  27
ENDBRANCH   2  25
TORSDOF 5
ENDMDL
MODEL 6
REMARK VINA RESULT:    -8.929      2.440      3.523
REMARK INTER + INTRA:         -12.269
REMARK INTER:                 -11.587
REMARK INTRA:                  -0.682
REMARK UNBOUND:                -0.730
REMARK SMILES CCC(=O)n1cc2c3c(cccc31)C1=C[C@@H](C(=O)N(CC)CC)CN(C)[C@@H]1C2
REMARK SMILES IDX 25 1 5 2 27 3 14 4 28 5 16 6 24 7 7 8 9 9 8 10 15 11 13 12
REMARK SMILES IDX 6 13 26 14 10 15 12 16 11 17 17 18 18 19 19 20 20 21 21 22
REMARK SMILES IDX 22 23 23 24 3 25 4 26 2 27 1 28
REMARK H PARENT
ROOT
ATOM      1  N   UNL     1     -11.298 -18.648  18.026  1.00  0.00    -0.298 NA
ATOM      2  N   UNL     1     -11.204 -19.634  23.975  1.00  0.00    -0.287 N 
ATOM      3  C   UNL     1     -11.446 -18.476  19.490  1.00  0.00     0.091 C 
ATOM      4  C   UNL     1     -12.831 -17.977  19.968  1.00  0.00    -0.026 C 
ATOM      5  C   UNL     1     -11.013 -19.787  20.238  1.00  0.00     0.061 C 
ATOM      6  C   UNL     1     -13.802 -18.193  17.683  1.00  0.00     0.116 C 
ATOM      7  C   UNL     1     -12.557 -19.063  17.378  1.00  0.00     0.102 C 
ATOM      8  C   UNL     1     -11.215 -19.604  21.710  1.00  0.00    -0.019 A 
ATOM      9  C   UNL     1     -12.966 -17.793  21.430  1.00  0.00    -0.011 A 
ATOM     10  C   UNL     1     -12.139 -18.651  22.183  1.00  0.00     0.011 A 
ATOM     11  C   UNL     1     -13.881 -17.827  19.139  1.00  0.00    -0.007 C 
ATOM     12  C   UNL     1     -12.136 -18.656  23.579  1.00  0.00     0.056 A 
ATOM     13  C   UNL     1     -10.657 -20.192  22.812  1.00  0.00     0.099 A 
ATOM     14  C   UNL     1     -10.739 -17.455  17.393  1.00  0.00     0.106 C 
ATOM     15  C   UNL     1     -13.809 -16.916  22.109  1.00  0.00     0.009 A 
ATOM     16  C   UNL     1     -12.990 -17.762  24.256  1.00  0.00     0.027 A 
ATOM     17  C   UNL     1     -13.813 -16.904  23.504  1.00  0.00     0.003 A 
ENDROOT
BRANCH   6  18
ATOM     18  C   UNL     1     -14.008 -17.083  16.619  1.00  0.00     0.230 C 
ATOM     19  O   UNL     1     -13.651 -17.258  15.449  1.00  0.00    -0.274 OA
ATOM     20  N   UNL     1     -14.806 -15.982  16.973  1.00  0.00    -0.343 N 
BRANCH  20  21
ATOM     21  C   UNL     1     -14.219 -14.994  17.888  1.00  0.00     0.116 C 
ATOM     22  C   UNL     1     -15.189 -14.478  18.945  1.00  0.00     0.027 C 
ENDBRANCH  20  21
BRANCH  20  23
ATOM     23  C   UNL     1     -15.638 -15.459  15.885  1.00  0.00     0.116 C 
ATOM     24  C   UNL     1     -17.078 -15.946  15.922  1.00  0.00     0.027 C 
ENDBRANCH  20  23
ENDBRANCH   6  18
BRANCH   2  25
ATOM     25  C   UNL     1     -10.804 -20.066  25.264  1.00  0.00     0.230 C 
ATOM     26  O   UNL     1     -11.513 -20.871  25.862  1.00  0.00    -0.274 OA
BRANCH  25  27
ATOM     27  C   UNL     1      -9.524 -19.499  25.813  1.00  0.00     0.097 C 
ATOM     28  C   UNL     1      -8.423 -20.548  25.875  1.00  0.00     0.014 C 
ENDBRANCH  25  27
ENDBRANCH   2  25
TORSDOF 5
ENDMDL
MODEL 7
REMARK VINA RESULT:    -8.867      2.711      3.452
REMARK INTER + INTRA:         -12.189
REMARK INTER:                 -11.527
REMARK INTRA:                  -0.662
REMARK UNBOUND:                -0.730
REMARK SMILES CCC(=O)n1cc2c3c(cccc31)C1=C[C@@H](C(=O)N(CC)CC)CN(C)[C@@H]1C2
REMARK SMILES IDX 25 1 5 2 27 3 14 4 28 5 16 6 24 7 7 8 9 9 8 10 15 11 13 12
REMARK SMILES IDX 6 13 26 14 10 15 12 16 11 17 17 18 18 19 19 20 20 21 21 22
REMARK SMILES IDX 22 23 23 24 3 25 4 26 2 27 1 28
REMARK H PARENT
ROOT
ATOM      1  N   UNL     1     -14.949 -17.305  21.952  1.00  0.00    -0.298 NA
ATOM      2  N   UNL     1     -10.189 -19.659  24.810  1.00  0.00    -0.287 N 
ATOM      3  C   UNL     1     -13.710 -18.059  22.248  1.00  0.00     0.091 C 
ATOM      4  C   UNL     1     -12.540 -17.837  21.260  1.00  0.00    -0.026 C 
ATOM      5  C   UNL     1     -13.266 -17.815  23.735  1.00  0.00     0.061 C 
ATOM      6  C   UNL     1     -13.759 -16.011  20.082  1.00  0.00     0.116 C 
ATOM      7  C   UNL     1     -14.677 -15.996  21.329  1.00  0.00     0.102 C 
ATOM      8  C   UNL     1     -11.988 -18.550  23.995  1.00  0.00    -0.019 A 
ATOM      9  C   UNL     1     -11.309 -18.605  21.553  1.00  0.00    -0.011 A 
ATOM     10  C   UNL     1     -11.135 -18.885  22.924  1.00  0.00     0.011 A 
ATOM     11  C   UNL     1     -12.582 -16.927  20.269  1.00  0.00    -0.007 C 
ATOM     12  C   UNL     1     -10.026 -19.575  23.414  1.00  0.00     0.056 A 
ATOM     13  C   UNL     1     -11.397 -19.028  25.133  1.00  0.00     0.099 A 
ATOM     14  C   UNL     1     -15.886 -18.093  21.153  1.00  0.00     0.106 C 
ATOM     15  C   UNL     1     -10.336 -19.038  20.657  1.00  0.00     0.009 A 
ATOM     16  C   UNL     1      -9.047 -20.013  22.497  1.00  0.00     0.027 A 
ATOM     17  C   UNL     1      -9.223 -19.735  21.129  1.00  0.00     0.003 A 
ENDROOT
BRANCH   6  18
ATOM     18  C   UNL     1     -14.574 -16.095  18.764  1.00  0.00     0.230 C 
ATOM     19  O   UNL     1     -14.833 -17.188  18.253  1.00  0.00    -0.274 OA
ATOM     20  N   UNL     1     -15.188 -14.919  18.303  1.00  0.00    -0.343 N 
BRANCH  20  21
ATOM     21  C   UNL     1     -14.320 -13.898  17.700  1.00  0.00     0.116 C 
ATOM     22  C   UNL     1     -13.511 -14.400  16.509  1.00  0.00     0.027 C 
ENDBRANCH  20  21
BRANCH  20  23
ATOM     23  C   UNL     1     -16.498 -15.122  17.675  1.00  0.00     0.116 C 
ATOM     24  C   UNL     1     -17.186 -13.834  17.252  1.00  0.00     0.027 C 
ENDBRANCH  20  23
ENDBRANCH   6  18
BRANCH   2  25
ATOM     25  C   UNL     1      -9.367 -20.242  25.807  1.00  0.00     0.230 C 
ATOM     26  O   UNL     1      -9.220 -19.646  26.870  1.00  0.00    -0.274 OA
BRANCH  25  27
ATOM     27  C   UNL     1      -8.727 -21.563  25.485  1.00  0.00     0.097 C 
ATOM     28  C   UNL     1      -7.208 -21.464  25.464  1.00  0.00     0.014 C 
ENDBRANCH  25  27
ENDBRANCH   2  25
TORSDOF 5
ENDMDL
MODEL 8
REMARK VINA RESULT:    -8.831      3.342      9.661
REMARK INTER + INTRA:         -12.143
REMARK INTER:                 -11.277
REMARK INTRA:                  -0.866
REMARK UNBOUND:                -0.730
REMARK SMILES CCC(=O)n1cc2c3c(cccc31)C1=C[C@@H](C(=O)N(CC)CC)CN(C)[C@@H]1C2
REMARK SMILES IDX 25 1 5 2 27 3 14 4 28 5 16 6 24 7 7 8 9 9 8 10 15 11 13 12
REMARK SMILES IDX 6 13 26 14 10 15 12 16 11 17 17 18 18 19 19 20 20 21 21 22
REMARK SMILES IDX 22 23 23 24 3 25 4 26 2 27 1 28
REMARK H PARENT
ROOT
ATOM      1  N   UNL     1     -12.750 -18.179  16.693  1.00  0.00    -0.298 NA
ATOM      2  N   UNL     1     -16.930 -14.122  15.132  1.00  0.00    -0.287 N 
ATOM      3  C   UNL     1     -13.900 -17.247  16.735  1.00  0.00     0.091 C 
ATOM      4  C   UNL     1     -13.914 -16.257  17.925  1.00  0.00    -0.026 C 
ATOM      5  C   UNL     1     -14.048 -16.503  15.360  1.00  0.00     0.061 C 
ATOM      6  C   UNL     1     -11.632 -16.947  18.648  1.00  0.00     0.116 C 
ATOM      7  C   UNL     1     -11.517 -17.579  17.239  1.00  0.00     0.102 C 
ATOM      8  C   UNL     1     -15.187 -15.535  15.444  1.00  0.00    -0.019 A 
ATOM      9  C   UNL     1     -15.074 -15.338  17.969  1.00  0.00    -0.011 A 
ATOM     10  C   UNL     1     -15.606 -15.044  16.698  1.00  0.00     0.011 A 
ATOM     11  C   UNL     1     -12.896 -16.147  18.798  1.00  0.00    -0.007 C 
ATOM     12  C   UNL     1     -16.685 -14.178  16.518  1.00  0.00     0.056 A 
ATOM     13  C   UNL     1     -16.002 -14.964  14.505  1.00  0.00     0.099 A 
ATOM     14  C   UNL     1     -13.058 -19.451  17.344  1.00  0.00     0.106 C 
ATOM     15  C   UNL     1     -15.651 -14.741  19.086  1.00  0.00     0.009 A 
ATOM     16  C   UNL     1     -17.265 -13.581  17.656  1.00  0.00     0.027 A 
ATOM     17  C   UNL     1     -16.735 -13.877  18.925  1.00  0.00     0.003 A 
ENDROOT
BRANCH   6  18
ATOM     18  C   UNL     1     -11.241 -17.950  19.766  1.00  0.00     0.230 C 
ATOM     19  O   UNL     1     -12.065 -18.293  20.620  1.00  0.00    -0.274 OA
ATOM     20  N   UNL     1     -10.010 -18.615  19.642  1.00  0.00    -0.343 N 
BRANCH  20  21
ATOM     21  C   UNL     1      -8.795 -17.836  19.918  1.00  0.00     0.116 C 
ATOM     22  C   UNL     1      -8.214 -17.143  18.690  1.00  0.00     0.027 C 
ENDBRANCH  20  21
BRANCH  20  23
ATOM     23  C   UNL     1     -10.020 -20.005  20.108  1.00  0.00     0.116 C 
ATOM     24  C   UNL     1      -8.905 -20.334  21.089  1.00  0.00     0.027 C 
ENDBRANCH  20  23
ENDBRANCH   6  18
BRANCH   2  25
ATOM     25  C   UNL     1     -17.895 -13.398  14.388  1.00  0.00     0.230 C 
ATOM     26  O   UNL     1     -17.953 -12.179  14.528  1.00  0.00    -0.274 OA
BRANCH  25  27
ATOM     27  C   UNL     1     -18.789 -14.185  13.472  1.00  0.00     0.097 C 
ATOM     28  C   UNL     1     -19.773 -15.050  14.249  1.00  0.00     0.014 C 
ENDBRANCH  25  27
ENDBRANCH   2  25
TORSDOF 5
ENDMDL
MODEL 9
REMARK VINA RESULT:    -8.831      2.979      3.792
REMARK INTER + INTRA:         -12.142
REMARK INTER:                 -11.266
REMARK INTRA:                  -0.876
REMARK UNBOUND:                -0.730
REMARK SMILES CCC(=O)n1cc2c3c(cccc31)C1=C[C@@H](C(=O)N(CC)CC)CN(C)[C@@H]1C2
REMARK SMILES IDX 25 1 5 2 27 3 14 4 28 5 16 6 24 7 7 8 9 9 8 10 15 11 13 12
REMARK SMILES IDX 6 13 26 14 10 15 12 16 11 17 17 18 18 19 19 20 20 21 21 22
REMARK SMILES IDX 22 23 23 24 3 25 4 26 2 27 1 28
REMARK H PARENT
ROOT
ATOM      1  N   UNL     1     -15.365 -17.327  22.379  1.00  0.00    -0.298 NA
ATOM      2  N   UNL     1     -10.464 -20.205  24.398  1.00  0.00    -0.287 N 
ATOM      3  C   UNL     1     -14.118 -18.125  22.439  1.00  0.00     0.091 C 
ATOM      4  C   UNL     1     -13.009 -17.707  21.443  1.00  0.00    -0.026 C 
ATOM      5  C   UNL     1     -13.580 -18.184  23.913  1.00  0.00     0.061 C 
ATOM      6  C   UNL     1     -14.277 -15.682  20.735  1.00  0.00     0.116 C 
ATOM      7  C   UNL     1     -15.116 -15.919  22.016  1.00  0.00     0.102 C 
ATOM      8  C   UNL     1     -12.297 -18.956  23.939  1.00  0.00    -0.019 A 
ATOM      9  C   UNL     1     -11.772 -18.517  21.498  1.00  0.00    -0.011 A 
ATOM     10  C   UNL     1     -11.517 -19.068  22.770  1.00  0.00     0.011 A 
ATOM     11  C   UNL     1     -13.102 -16.616  20.659  1.00  0.00    -0.007 C 
ATOM     12  C   UNL     1     -10.388 -19.842  23.040  1.00  0.00     0.056 A 
ATOM     13  C   UNL     1     -11.643 -19.652  24.917  1.00  0.00     0.099 A 
ATOM     14  C   UNL     1     -16.359 -17.939  21.499  1.00  0.00     0.106 C 
ATOM     15  C   UNL     1     -10.861 -18.761  20.473  1.00  0.00     0.009 A 
ATOM     16  C   UNL     1      -9.473 -20.085  21.995  1.00  0.00     0.027 A 
ATOM     17  C   UNL     1      -9.730 -19.538  20.724  1.00  0.00     0.003 A 
ENDROOT
BRANCH   6  18
ATOM     18  C   UNL     1     -15.173 -15.499  19.481  1.00  0.00     0.230 C 
ATOM     19  O   UNL     1     -16.188 -14.798  19.530  1.00  0.00    -0.274 OA
ATOM     20  N   UNL     1     -14.675 -15.966  18.253  1.00  0.00    -0.343 N 
BRANCH  20  21
ATOM     21  C   UNL     1     -14.672 -17.420  18.038  1.00  0.00     0.116 C 
ATOM     22  C   UNL     1     -13.426 -17.936  17.328  1.00  0.00     0.027 C 
ENDBRANCH  20  21
BRANCH  20  23
ATOM     23  C   UNL     1     -15.023 -15.131  17.099  1.00  0.00     0.116 C 
ATOM     24  C   UNL     1     -14.108 -13.932  16.908  1.00  0.00     0.027 C 
ENDBRANCH  20  23
ENDBRANCH   6  18
BRANCH   2  25
ATOM     25  C   UNL     1      -9.590 -20.976  25.204  1.00  0.00     0.230 C 
ATOM     26  O   UNL     1      -9.956 -22.089  25.572  1.00  0.00    -0.274 OA
BRANCH  25  27
ATOM     27  C   UNL     1      -8.262 -20.367  25.556  1.00  0.00     0.097 C 
ATOM     28  C   UNL     1      -7.115 -21.054  24.830  1.00  0.00     0.014 C 
ENDBRANCH  25  27
ENDBRANCH   2  25
TORSDOF 5
ENDMDL
MODEL 10
REMARK VINA RESULT:    -8.732      4.130      9.851
REMARK INTER + INTRA:         -12.014
REMARK INTER:                 -11.212
REMARK INTRA:                  -0.803
REMARK UNBOUND:                -0.730
REMARK SMILES CCC(=O)n1cc2c3c(cccc31)C1=C[C@@H](C(=O)N(CC)CC)CN(C)[C@@H]1C2
REMARK SMILES IDX 25 1 5 2 27 3 14 4 28 5 16 6 24 7 7 8 9 9 8 10 15 11 13 12
REMARK SMILES IDX 6 13 26 14 10 15 12 16 11 17 17 18 18 19 19 20 20 21 21 22
REMARK SMILES IDX 22 23 23 24 3 25 4 26 2 27 1 28
REMARK H PARENT
ROOT
ATOM      1  N   UNL     1     -13.552 -18.394  18.109  1.00  0.00    -0.298 NA
ATOM      2  N   UNL     1     -16.470 -14.363  14.701  1.00  0.00    -0.287 N 
ATOM      3  C   UNL     1     -14.476 -17.327  17.661  1.00  0.00     0.091 C 
ATOM      4  C   UNL     1     -14.498 -16.051  18.537  1.00  0.00    -0.026 C 
ATOM      5  C   UNL     1     -14.223 -16.986  16.149  1.00  0.00     0.061 C 
ATOM      6  C   UNL     1     -12.570 -16.842  19.903  1.00  0.00     0.116 C 
ATOM      7  C   UNL     1     -12.339 -17.855  18.754  1.00  0.00     0.102 C 
ATOM      8  C   UNL     1     -15.136 -15.875  15.734  1.00  0.00    -0.019 A 
ATOM      9  C   UNL     1     -15.434 -14.994  18.092  1.00  0.00    -0.011 A 
ATOM     10  C   UNL     1     -15.662 -14.994  16.701  1.00  0.00     0.011 A 
ATOM     11  C   UNL     1     -13.650 -15.853  19.563  1.00  0.00    -0.007 C 
ATOM     12  C   UNL     1     -16.491 -14.062  16.076  1.00  0.00     0.056 A 
ATOM     13  C   UNL     1     -15.638 -15.477  14.525  1.00  0.00     0.099 A 
ATOM     14  C   UNL     1     -14.224 -19.370  18.965  1.00  0.00     0.106 C 
ATOM     15  C   UNL     1     -16.066 -14.027  18.870  1.00  0.00     0.009 A 
ATOM     16  C   UNL     1     -17.129 -13.089  16.873  1.00  0.00     0.027 A 
ATOM     17  C   UNL     1     -16.904 -13.092  18.262  1.00  0.00     0.003 A 
ENDROOT
BRANCH   6  18
ATOM     18  C   UNL     1     -12.596 -17.536  21.291  1.00  0.00     0.230 C 
ATOM     19  O   UNL     1     -11.743 -18.376  21.591  1.00  0.00    -0.274 OA
ATOM     20  N   UNL     1     -13.473 -17.019  22.259  1.00  0.00    -0.343 N 
BRANCH  20  21
ATOM     21  C   UNL     1     -14.905 -17.304  22.091  1.00  0.00     0.116 C 
ATOM     22  C   UNL     1     -15.802 -16.084  22.271  1.00  0.00     0.027 C 
ENDBRANCH  20  21
BRANCH  20  23
ATOM     23  C   UNL     1     -12.953 -17.052  23.630  1.00  0.00     0.116 C 
ATOM     24  C   UNL     1     -13.661 -18.049  24.534  1.00  0.00     0.027 C 
ENDBRANCH  20  23
ENDBRANCH   6  18
BRANCH   2  25
ATOM     25  C   UNL     1     -17.119 -13.743  13.605  1.00  0.00     0.230 C 
ATOM     26  O   UNL     1     -16.443 -13.398  12.639  1.00  0.00    -0.274 OA
BRANCH  25  27
ATOM     27  C   UNL     1     -18.606 -13.548  13.706  1.00  0.00     0.097 C 
ATOM     28  C   UNL     1     -19.342 -14.874  13.839  1.00  0.00     0.014 C 
ENDBRANCH  25  27
ENDBRANCH   2  25
TORSDOF 5
ENDMDL
MODEL 11
REMARK VINA RESULT:    -8.694      3.041      9.174
REMARK INTER + INTRA:         -11.966
REMARK INTER:                 -11.277
REMARK INTRA:                  -0.689
REMARK UNBOUND:                -0.730
REMARK SMILES CCC(=O)n1cc2c3c(cccc31)C1=C[C@@H](C(=O)N(CC)CC)CN(C)[C@@H]1C2
REMARK SMILES IDX 25 1 5 2 27 3 14 4 28 5 16 6 24 7 7 8 9 9 8 10 15 11 13 12
REMARK SMILES IDX 6 13 26 14 10 15 12 16 11 17 17 18 18 19 19 20 20 21 21 22
REMARK SMILES IDX 22 23 23 24 3 25 4 26 2 27 1 28
REMARK H PARENT
ROOT
ATOM      1  N   UNL     1     -11.972 -18.445  16.995  1.00  0.00    -0.298 NA
ATOM      2  N   UNL     1     -16.425 -14.496  16.019  1.00  0.00    -0.287 N 
ATOM      3  C   UNL     1     -13.179 -17.605  17.168  1.00  0.00     0.091 C 
ATOM      4  C   UNL     1     -13.244 -16.791  18.483  1.00  0.00    -0.026 C 
ATOM      5  C   UNL     1     -13.391 -16.690  15.909  1.00  0.00     0.061 C 
ATOM      6  C   UNL     1     -10.913 -17.422  19.098  1.00  0.00     0.116 C 
ATOM      7  C   UNL     1     -10.774 -17.844  17.615  1.00  0.00     0.102 C 
ATOM      8  C   UNL     1     -14.590 -15.820  16.128  1.00  0.00    -0.019 A 
ATOM      9  C   UNL     1     -14.461 -15.966  18.656  1.00  0.00    -0.011 A 
ATOM     10  C   UNL     1     -15.026 -15.536  17.439  1.00  0.00     0.011 A 
ATOM     11  C   UNL     1     -12.225 -16.735  19.360  1.00  0.00    -0.007 C 
ATOM     12  C   UNL     1     -16.161 -14.726  17.383  1.00  0.00     0.056 A 
ATOM     13  C   UNL     1     -15.451 -15.181  15.280  1.00  0.00     0.099 A 
ATOM     14  C   UNL     1     -12.189 -19.812  17.464  1.00  0.00     0.106 C 
ATOM     15  C   UNL     1     -15.063 -15.567  19.847  1.00  0.00     0.009 A 
ATOM     16  C   UNL     1     -16.765 -14.330  18.594  1.00  0.00     0.027 A 
ATOM     17  C   UNL     1     -16.202 -14.763  19.809  1.00  0.00     0.003 A 
ENDROOT
BRANCH   6  18
ATOM     18  C   UNL     1     -10.445 -18.540  20.066  1.00  0.00     0.230 C 
ATOM     19  O   UNL     1      -9.373 -19.124  19.882  1.00  0.00    -0.274 OA
ATOM     20  N   UNL     1     -11.161 -18.706  21.264  1.00  0.00    -0.343 N 
BRANCH  20  21
ATOM     21  C   UNL     1     -12.484 -19.339  21.174  1.00  0.00     0.116 C 
ATOM     22  C   UNL     1     -13.595 -18.546  21.854  1.00  0.00     0.027 C 
ENDBRANCH  20  21
BRANCH  20  23
ATOM     23  C   UNL     1     -10.336 -19.068  22.421  1.00  0.00     0.116 C 
ATOM     24  C   UNL     1     -10.704 -20.404  23.046  1.00  0.00     0.027 C 
ENDBRANCH  20  23
ENDBRANCH   6  18
BRANCH   2  25
ATOM     25  C   UNL     1     -17.443 -13.743  15.384  1.00  0.00     0.230 C 
ATOM     26  O   UNL     1     -17.412 -12.518  15.474  1.00  0.00    -0.274 OA
BRANCH  25  27
ATOM     27  C   UNL     1     -18.502 -14.506  14.640  1.00  0.00     0.097 C 
ATOM     28  C   UNL     1     -18.277 -14.462  13.135  1.00  0.00     0.014 C 
ENDBRANCH  25  27
ENDBRANCH   2  25
TORSDOF 5
ENDMDL
MODEL 12
REMARK VINA RESULT:    -8.613      3.323      4.178
REMARK INTER + INTRA:         -11.861
REMARK INTER:                 -11.152
REMARK INTRA:                  -0.710
REMARK UNBOUND:                -0.730
REMARK SMILES CCC(=O)n1cc2c3c(cccc31)C1=C[C@@H](C(=O)N(CC)CC)CN(C)[C@@H]1C2
REMARK SMILES IDX 25 1 5 2 27 3 14 4 28 5 16 6 24 7 7 8 9 9 8 10 15 11 13 12
REMARK SMILES IDX 6 13 26 14 10 15 12 16 11 17 17 18 18 19 19 20 20 21 21 22
REMARK SMILES IDX 22 23 23 24 3 25 4 26 2 27 1 28
REMARK H PARENT
ROOT
ATOM      1  N   UNL     1     -15.291 -16.192  20.637  1.00  0.00    -0.298 NA
ATOM      2  N   UNL     1     -12.629 -18.927  25.306  1.00  0.00    -0.287 N 
ATOM      3  C   UNL     1     -14.500 -17.138  21.457  1.00  0.00     0.091 C 
ATOM      4  C   UNL     1     -13.070 -17.432  20.944  1.00  0.00    -0.026 C 
ATOM      5  C   UNL     1     -14.494 -16.682  22.960  1.00  0.00     0.061 C 
ATOM      6  C   UNL     1     -13.238 -15.677  19.184  1.00  0.00     0.116 C 
ATOM      7  C   UNL     1     -14.451 -15.161  19.997  1.00  0.00     0.102 C 
ATOM      8  C   UNL     1     -13.652 -17.627  23.758  1.00  0.00    -0.019 A 
ATOM      9  C   UNL     1     -12.290 -18.390  21.761  1.00  0.00    -0.011 A 
ATOM     10  C   UNL     1     -12.650 -18.390  23.123  1.00  0.00     0.011 A 
ATOM     11  C   UNL     1     -12.518 -16.785  19.901  1.00  0.00    -0.007 C 
ATOM     12  C   UNL     1     -12.018 -19.200  24.067  1.00  0.00     0.056 A 
ATOM     13  C   UNL     1     -13.624 -17.966  25.083  1.00  0.00     0.099 A 
ATOM     14  C   UNL     1     -16.122 -16.888  19.656  1.00  0.00     0.106 C 
ATOM     15  C   UNL     1     -11.265 -19.235  21.343  1.00  0.00     0.009 A 
ATOM     16  C   UNL     1     -10.984 -20.055  23.634  1.00  0.00     0.027 A 
ATOM     17  C   UNL     1     -10.627 -20.057  22.273  1.00  0.00     0.003 A 
ENDROOT
BRANCH   6  18
ATOM     18  C   UNL     1     -13.581 -15.854  17.681  1.00  0.00     0.230 C 
ATOM     19  O   UNL     1     -14.459 -15.166  17.150  1.00  0.00    -0.274 OA
ATOM     20  N   UNL     1     -12.720 -16.649  16.906  1.00  0.00    -0.343 N 
BRANCH  20  21
ATOM     21  C   UNL     1     -12.797 -18.104  17.094  1.00  0.00     0.116 C 
ATOM     22  C   UNL     1     -14.202 -18.675  16.927  1.00  0.00     0.027 C 
ENDBRANCH  20  21
BRANCH  20  23
ATOM     23  C   UNL     1     -12.523 -16.172  15.533  1.00  0.00     0.116 C 
ATOM     24  C   UNL     1     -11.089 -16.292  15.040  1.00  0.00     0.027 C 
ENDBRANCH  20  23
ENDBRANCH   6  18
BRANCH   2  25
ATOM     25  C   UNL     1     -12.382 -19.453  26.598  1.00  0.00     0.230 C 
ATOM     26  O   UNL     1     -11.485 -18.956  27.274  1.00  0.00    -0.274 OA
BRANCH  25  27
ATOM     27  C   UNL     1     -13.245 -20.596  27.053  1.00  0.00     0.097 C 
ATOM     28  C   UNL     1     -12.888 -21.892  26.339  1.00  0.00     0.014 C 
ENDBRANCH  25  27
ENDBRANCH   2  25
TORSDOF 5
ENDMDL
MODEL 13
REMARK VINA RESULT:    -8.602      2.712      8.904
REMARK INTER + INTRA:         -11.846
REMARK INTER:                 -11.315
REMARK INTRA:                  -0.531
REMARK UNBOUND:                -0.730
REMARK SMILES CCC(=O)n1cc2c3c(cccc31)C1=C[C@@H](C(=O)N(CC)CC)CN(C)[C@@H]1C2
REMARK SMILES IDX 25 1 5 2 27 3 14 4 28 5 16 6 24 7 7 8 9 9 8 10 15 11 13 12
REMARK SMILES IDX 6 13 26 14 10 15 12 16 11 17 17 18 18 19 19 20 20 21 21 22
REMARK SMILES IDX 22 23 23 24 3 25 4 26 2 27 1 28
REMARK H PARENT
ROOT
ATOM      1  N   UNL     1     -13.860 -17.521  20.296  1.00  0.00    -0.298 NA
ATOM      2  N   UNL     1     -15.312 -15.487  14.807  1.00  0.00    -0.287 N 
ATOM      3  C   UNL     1     -13.773 -16.969  18.925  1.00  0.00     0.091 C 
ATOM      4  C   UNL     1     -12.740 -17.650  17.995  1.00  0.00    -0.026 C 
ATOM      5  C   UNL     1     -15.198 -16.916  18.267  1.00  0.00     0.061 C 
ATOM      6  C   UNL     1     -12.280 -19.444  19.662  1.00  0.00     0.116 C 
ATOM      7  C   UNL     1     -13.592 -18.972  20.337  1.00  0.00     0.102 C 
ATOM      8  C   UNL     1     -15.076 -16.398  16.868  1.00  0.00    -0.019 A 
ATOM      9  C   UNL     1     -12.647 -17.083  16.630  1.00  0.00    -0.011 A 
ATOM     10  C   UNL     1     -13.852 -16.510  16.177  1.00  0.00     0.011 A 
ATOM     11  C   UNL     1     -12.052 -18.752  18.347  1.00  0.00    -0.007 C 
ATOM     12  C   UNL     1     -13.984 -15.945  14.908  1.00  0.00     0.056 A 
ATOM     13  C   UNL     1     -15.951 -15.775  16.021  1.00  0.00     0.099 A 
ATOM     14  C   UNL     1     -13.004 -16.793  21.230  1.00  0.00     0.106 C 
ATOM     15  C   UNL     1     -11.547 -17.081  15.777  1.00  0.00     0.009 A 
ATOM     16  C   UNL     1     -12.864 -15.945  14.052  1.00  0.00     0.027 A 
ATOM     17  C   UNL     1     -11.660 -16.515  14.507  1.00  0.00     0.003 A 
ENDROOT
BRANCH   6  18
ATOM     18  C   UNL     1     -11.108 -19.536  20.675  1.00  0.00     0.230 C 
ATOM     19  O   UNL     1     -11.272 -20.059  21.781  1.00  0.00    -0.274 OA
ATOM     20  N   UNL     1      -9.821 -19.214  20.211  1.00  0.00    -0.343 N 
BRANCH  20  21
ATOM     21  C   UNL     1      -9.521 -17.792  19.994  1.00  0.00     0.116 C 
ATOM     22  C   UNL     1      -8.820 -17.504  18.671  1.00  0.00     0.027 C 
ENDBRANCH  20  21
BRANCH  20  23
ATOM     23  C   UNL     1      -8.747 -20.034  20.781  1.00  0.00     0.116 C 
ATOM     24  C   UNL     1      -7.870 -19.294  21.778  1.00  0.00     0.027 C 
ENDBRANCH  20  23
ENDBRANCH   6  18
BRANCH   2  25
ATOM     25  C   UNL     1     -15.994 -14.843  13.745  1.00  0.00     0.230 C 
ATOM     26  O   UNL     1     -15.347 -14.476  12.767  1.00  0.00    -0.274 OA
BRANCH  25  27
ATOM     27  C   UNL     1     -17.477 -14.652  13.895  1.00  0.00     0.097 C 
ATOM     28  C   UNL     1     -17.914 -13.262  13.453  1.00  0.00     0.014 C 
ENDBRANCH  25  27
ENDBRANCH   2  25
TORSDOF 5
ENDMDL
MODEL 14
REMARK VINA RESULT:    -8.495      2.491      3.453
REMARK INTER + INTRA:         -11.709
REMARK INTER:                 -11.120
REMARK INTRA:                  -0.589
REMARK UNBOUND:                -0.730
REMARK SMILES CCC(=O)n1cc2c3c(cccc31)C1=C[C@@H](C(=O)N(CC)CC)CN(C)[C@@H]1C2
REMARK SMILES IDX 25 1 5 2 27 3 14 4 28 5 16 6 24 7 7 8 9 9 8 10 15 11 13 12
REMARK SMILES IDX 6 13 26 14 10 15 12 16 11 17 17 18 18 19 19 20 20 21 21 22
REMARK SMILES IDX 22 23 23 24 3 25 4 26 2 27 1 28
REMARK H PARENT
ROOT
ATOM      1  N   UNL     1     -11.926 -18.163  17.347  1.00  0.00    -0.298 NA
ATOM      2  N   UNL     1     -11.086 -19.911  23.057  1.00  0.00    -0.287 N 
ATOM      3  C   UNL     1     -11.791 -18.156  18.822  1.00  0.00     0.091 C 
ATOM      4  C   UNL     1     -12.932 -17.451  19.595  1.00  0.00    -0.026 C 
ATOM      5  C   UNL     1     -11.547 -19.614  19.353  1.00  0.00     0.061 C 
ATOM      6  C   UNL     1     -14.286 -17.165  17.522  1.00  0.00     0.116 C 
ATOM      7  C   UNL     1     -13.335 -18.224  16.911  1.00  0.00     0.102 C 
ATOM      8  C   UNL     1     -11.459 -19.586  20.847  1.00  0.00    -0.019 A 
ATOM      9  C   UNL     1     -12.782 -17.435  21.067  1.00  0.00    -0.011 A 
ATOM     10  C   UNL     1     -12.056 -18.534  21.570  1.00  0.00     0.011 A 
ATOM     11  C   UNL     1     -14.042 -16.984  18.995  1.00  0.00    -0.007 C 
ATOM     12  C   UNL     1     -11.826 -18.721  22.934  1.00  0.00     0.056 A 
ATOM     13  C   UNL     1     -10.875 -20.414  21.766  1.00  0.00     0.099 A 
ATOM     14  C   UNL     1     -11.225 -17.038  16.732  1.00  0.00     0.106 C 
ATOM     15  C   UNL     1     -13.284 -16.500  21.969  1.00  0.00     0.009 A 
ATOM     16  C   UNL     1     -12.336 -17.767  23.838  1.00  0.00     0.027 A 
ATOM     17  C   UNL     1     -13.057 -16.668  23.335  1.00  0.00     0.003 A 
ENDROOT
BRANCH   6  18
ATOM     18  C   UNL     1     -14.409 -15.908  16.622  1.00  0.00     0.230 C 
ATOM     19  O   UNL     1     -13.654 -14.944  16.780  1.00  0.00    -0.274 OA
ATOM     20  N   UNL     1     -15.243 -15.995  15.495  1.00  0.00    -0.343 N 
BRANCH  20  21
ATOM     21  C   UNL     1     -16.693 -15.968  15.727  1.00  0.00     0.116 C 
ATOM     22  C   UNL     1     -17.188 -14.690  16.395  1.00  0.00     0.027 C 
ENDBRANCH  20  21
BRANCH  20  23
ATOM     23  C   UNL     1     -14.752 -15.270  14.318  1.00  0.00     0.116 C 
ATOM     24  C   UNL     1     -13.472 -15.843  13.731  1.00  0.00     0.027 C 
ENDBRANCH  20  23
ENDBRANCH   6  18
BRANCH   2  25
ATOM     25  C   UNL     1     -10.588 -20.580  24.203  1.00  0.00     0.230 C 
ATOM     26  O   UNL     1      -9.400 -20.892  24.233  1.00  0.00    -0.274 OA
BRANCH  25  27
ATOM     27  C   UNL     1     -11.561 -20.864  25.312  1.00  0.00     0.097 C 
ATOM     28  C   UNL     1     -11.730 -22.359  25.546  1.00  0.00     0.014 C 
ENDBRANCH  25  27
ENDBRANCH   2  25
TORSDOF 5
ENDMDL
MODEL 15
REMARK VINA RESULT:    -8.420      3.505      8.297
REMARK INTER + INTRA:         -11.612
REMARK INTER:                 -10.923
REMARK INTRA:                  -0.689
REMARK UNBOUND:                -0.730
REMARK SMILES CCC(=O)n1cc2c3c(cccc31)C1=C[C@@H](C(=O)N(CC)CC)CN(C)[C@@H]1C2
REMARK SMILES IDX 25 1 5 2 27 3 14 4 28 5 16 6 24 7 7 8 9 9 8 10 15 11 13 12
REMARK SMILES IDX 6 13 26 14 10 15 12 16 11 17 17 18 18 19 19 20 20 21 21 22
REMARK SMILES IDX 22 23 23 24 3 25 4 26 2 27 1 28
REMARK H PARENT
ROOT
ATOM      1  N   UNL     1     -10.939 -19.348  25.867  1.00  0.00    -0.298 NA
ATOM      2  N   UNL     1     -15.435 -17.261  22.431  1.00  0.00    -0.287 N 
ATOM      3  C   UNL     1     -11.697 -18.698  24.774  1.00  0.00     0.091 C 
ATOM      4  C   UNL     1     -11.285 -19.109  23.339  1.00  0.00    -0.026 C 
ATOM      5  C   UNL     1     -13.241 -18.872  25.004  1.00  0.00     0.061 C 
ATOM      6  C   UNL     1      -9.763 -20.890  24.185  1.00  0.00     0.116 C 
ATOM      7  C   UNL     1     -10.521 -20.721  25.525  1.00  0.00     0.102 C 
ATOM      8  C   UNL     1     -13.984 -18.247  23.864  1.00  0.00    -0.019 A 
ATOM      9  C   UNL     1     -12.038 -18.444  22.251  1.00  0.00    -0.011 A 
ATOM     10  C   UNL     1     -13.350 -18.079  22.616  1.00  0.00     0.011 A 
ATOM     11  C   UNL     1     -10.392 -20.082  23.084  1.00  0.00    -0.007 C 
ATOM     12  C   UNL     1     -14.233 -17.466  21.727  1.00  0.00     0.056 A 
ATOM     13  C   UNL     1     -15.249 -17.745  23.733  1.00  0.00     0.099 A 
ATOM     14  C   UNL     1      -9.802 -18.535  26.296  1.00  0.00     0.106 C 
ATOM     15  C   UNL     1     -11.610 -18.178  20.953  1.00  0.00     0.009 A 
ATOM     16  C   UNL     1     -13.789 -17.197  20.416  1.00  0.00     0.027 A 
ATOM     17  C   UNL     1     -12.479 -17.559  20.053  1.00  0.00     0.003 A 
ENDROOT
BRANCH   6  18
ATOM     18  C   UNL     1      -8.225 -20.827  24.377  1.00  0.00     0.230 C 
ATOM     19  O   UNL     1      -7.699 -21.280  25.399  1.00  0.00    -0.274 OA
ATOM     20  N   UNL     1      -7.446 -20.450  23.271  1.00  0.00    -0.343 N 
BRANCH  20  21
ATOM     21  C   UNL     1      -7.456 -19.029  22.895  1.00  0.00     0.116 C 
ATOM     22  C   UNL     1      -7.391 -18.788  21.391  1.00  0.00     0.027 C 
ENDBRANCH  20  21
BRANCH  20  23
ATOM     23  C   UNL     1      -6.161 -21.149  23.164  1.00  0.00     0.116 C 
ATOM     24  C   UNL     1      -4.961 -20.294  23.538  1.00  0.00     0.027 C 
ENDBRANCH  20  23
ENDBRANCH   6  18
BRANCH   2  25
ATOM     25  C   UNL     1     -16.664 -16.688  22.022  1.00  0.00     0.230 C 
ATOM     26  O   UNL     1     -17.626 -17.429  21.833  1.00  0.00    -0.274 OA
BRANCH  25  27
ATOM     27  C   UNL     1     -16.703 -15.196  21.845  1.00  0.00     0.097 C 
ATOM     28  C   UNL     1     -16.633 -14.800  20.377  1.00  0.00     0.014 C 
ENDBRANCH  25  27
ENDBRANCH   2  25
TORSDOF 5
ENDMDL
MODEL 16
REMARK VINA RESULT:    -8.309      4.236      5.480
REMARK INTER + INTRA:         -11.469
REMARK INTER:                 -10.677
REMARK INTRA:                  -0.792
REMARK UNBOUND:                -0.730
REMARK SMILES CCC(=O)n1cc2c3c(cccc31)C1=C[C@@H](C(=O)N(CC)CC)CN(C)[C@@H]1C2
REMARK SMILES IDX 25 1 5 2 27 3 14 4 28 5 16 6 24 7 7 8 9 9 8 10 15 11 13 12
REMARK SMILES IDX 6 13 26 14 10 15 12 16 11 17 17 18 18 19 19 20 20 21 21 22
REMARK SMILES IDX 22 23 23 24 3 25 4 26 2 27 1 28
REMARK H PARENT
ROOT
ATOM      1  N   UNL     1     -15.507 -17.662  22.433  1.00  0.00    -0.298 NA
ATOM      2  N   UNL     1      -9.793 -19.263  21.359  1.00  0.00    -0.287 N 
ATOM      3  C   UNL     1     -14.244 -18.016  21.746  1.00  0.00     0.091 C 
ATOM      4  C   UNL     1     -13.790 -17.037  20.637  1.00  0.00    -0.026 C 
ATOM      5  C   UNL     1     -13.105 -18.269  22.797  1.00  0.00     0.061 C 
ATOM      6  C   UNL     1     -15.581 -15.404  21.214  1.00  0.00     0.116 C 
ATOM      7  C   UNL     1     -15.703 -16.203  22.535  1.00  0.00     0.102 C 
ATOM      8  C   UNL     1     -11.830 -18.580  22.077  1.00  0.00    -0.019 A 
ATOM      9  C   UNL     1     -12.534 -17.405  19.944  1.00  0.00    -0.011 A 
ATOM     10  C   UNL     1     -11.645 -18.146  20.748  1.00  0.00     0.011 A 
ATOM     11  C   UNL     1     -14.415 -15.872  20.387  1.00  0.00    -0.007 C 
ATOM     12  C   UNL     1     -10.395 -18.568  20.293  1.00  0.00     0.056 A 
ATOM     13  C   UNL     1     -10.695 -19.256  22.432  1.00  0.00     0.099 A 
ATOM     14  C   UNL     1     -16.661 -18.315  21.818  1.00  0.00     0.106 C 
ATOM     15  C   UNL     1     -12.148 -17.087  18.645  1.00  0.00     0.009 A 
ATOM     16  C   UNL     1     -10.015 -18.243  18.975  1.00  0.00     0.027 A 
ATOM     17  C   UNL     1     -10.905 -17.507  18.172  1.00  0.00     0.003 A 
ENDROOT
BRANCH   6  18
ATOM     18  C   UNL     1     -16.957 -15.206  20.526  1.00  0.00     0.230 C 
ATOM     19  O   UNL     1     -17.069 -15.309  19.301  1.00  0.00    -0.274 OA
ATOM     20  N   UNL     1     -18.092 -15.131  21.351  1.00  0.00    -0.343 N 
BRANCH  20  21
ATOM     21  C   UNL     1     -18.292 -13.888  22.108  1.00  0.00     0.116 C 
ATOM     22  C   UNL     1     -19.235 -12.898  21.431  1.00  0.00     0.027 C 
ENDBRANCH  20  21
BRANCH  20  23
ATOM     23  C   UNL     1     -19.292 -15.763  20.794  1.00  0.00     0.116 C 
ATOM     24  C   UNL     1     -19.992 -16.711  21.755  1.00  0.00     0.027 C 
ENDBRANCH  20  23
ENDBRANCH   6  18
BRANCH   2  25
ATOM     25  C   UNL     1      -8.529 -19.896  21.459  1.00  0.00     0.230 C 
ATOM     26  O   UNL     1      -8.242 -20.770  20.644  1.00  0.00    -0.274 OA
BRANCH  25  27
ATOM     27  C   UNL     1      -7.620 -19.447  22.568  1.00  0.00     0.097 C 
ATOM     28  C   UNL     1      -6.455 -18.618  22.044  1.00  0.00     0.014 C 
ENDBRANCH  25  27
ENDBRANCH   2  25
TORSDOF 5
ENDMDL
MODEL 17
REMARK VINA RESULT:    -8.256      2.821      3.660
REMARK INTER + INTRA:         -11.400
REMARK INTER:                 -10.338
REMARK INTRA:                  -1.062
REMARK UNBOUND:                -0.730
REMARK SMILES CCC(=O)n1cc2c3c(cccc31)C1=C[C@@H](C(=O)N(CC)CC)CN(C)[C@@H]1C2
REMARK SMILES IDX 25 1 5 2 27 3 14 4 28 5 16 6 24 7 7 8 9 9 8 10 15 11 13 12
REMARK SMILES IDX 6 13 26 14 10 15 12 16 11 17 17 18 18 19 19 20 20 21 21 22
REMARK SMILES IDX 22 23 23 24 3 25 4 26 2 27 1 28
REMARK H PARENT
ROOT
ATOM      1  N   UNL     1     -14.685 -16.436  20.118  1.00  0.00    -0.298 NA
ATOM      2  N   UNL     1     -12.044 -18.899  24.948  1.00  0.00    -0.287 N 
ATOM      3  C   UNL     1     -13.960 -17.369  21.010  1.00  0.00     0.091 C 
ATOM      4  C   UNL     1     -12.619 -17.914  20.459  1.00  0.00    -0.026 C 
ATOM      5  C   UNL     1     -13.784 -16.734  22.436  1.00  0.00     0.061 C 
ATOM      6  C   UNL     1     -12.698 -16.385  18.493  1.00  0.00     0.116 C 
ATOM      7  C   UNL     1     -13.773 -15.614  19.299  1.00  0.00     0.102 C 
ATOM      8  C   UNL     1     -13.009 -17.677  23.303  1.00  0.00    -0.019 A 
ATOM      9  C   UNL     1     -11.907 -18.858  21.349  1.00  0.00    -0.011 A 
ATOM     10  C   UNL     1     -12.161 -18.640  22.718  1.00  0.00     0.011 A 
ATOM     11  C   UNL     1     -12.071 -17.482  19.308  1.00  0.00    -0.007 C 
ATOM     12  C   UNL     1     -11.566 -19.403  23.723  1.00  0.00     0.056 A 
ATOM     13  C   UNL     1     -12.925 -17.849  24.657  1.00  0.00     0.099 A 
ATOM     14  C   UNL     1     -15.668 -17.131  19.289  1.00  0.00     0.106 C 
ATOM     15  C   UNL     1     -11.030 -19.878  20.990  1.00  0.00     0.009 A 
ATOM     16  C   UNL     1     -10.682 -20.436  23.349  1.00  0.00     0.027 A 
ATOM     17  C   UNL     1     -10.432 -20.655  21.982  1.00  0.00     0.003 A 
ENDROOT
BRANCH   6  18
ATOM     18  C   UNL     1     -13.173 -16.701  17.049  1.00  0.00     0.230 C 
ATOM     19  O   UNL     1     -13.347 -17.868  16.686  1.00  0.00    -0.274 OA
ATOM     20  N   UNL     1     -13.606 -15.625  16.258  1.00  0.00    -0.343 N 
BRANCH  20  21
ATOM     21  C   UNL     1     -12.575 -14.727  15.721  1.00  0.00     0.116 C 
ATOM     22  C   UNL     1     -11.750 -15.338  14.593  1.00  0.00     0.027 C 
ENDBRANCH  20  21
BRANCH  20  23
ATOM     23  C   UNL     1     -14.733 -15.937  15.372  1.00  0.00     0.116 C 
ATOM     24  C   UNL     1     -16.093 -15.596  15.961  1.00  0.00     0.027 C 
ENDBRANCH  20  23
ENDBRANCH   6  18
BRANCH   2  25
ATOM     25  C   UNL     1     -11.768 -19.287  26.282  1.00  0.00     0.230 C 
ATOM     26  O   UNL     1     -10.620 -19.175  26.703  1.00  0.00    -0.274 OA
BRANCH  25  27
ATOM     27  C   UNL     1     -12.916 -19.817  27.096  1.00  0.00     0.097 C 
ATOM     28  C   UNL     1     -13.304 -21.227  26.674  1.00  0.00     0.014 C 
ENDBRANCH  25  27
ENDBRANCH   2  25
TORSDOF 5
ENDMDL
MODEL 18
REMARK VINA RESULT:    -8.207      3.303      4.382
REMARK INTER + INTRA:         -11.336
REMARK INTER:                 -11.261
REMARK INTRA:                  -0.074
REMARK UNBOUND:                -0.730
REMARK SMILES CCC(=O)n1cc2c3c(cccc31)C1=C[C@@H](C(=O)N(CC)CC)CN(C)[C@@H]1C2
REMARK SMILES IDX 25 1 5 2 27 3 14 4 28 5 16 6 24 7 7 8 9 9 8 10 15 11 13 12
REMARK SMILES IDX 6 13 26 14 10 15 12 16 11 17 17 18 18 19 19 20 20 21 21 22
REMARK SMILES IDX 22 23 23 24 3 25 4 26 2 27 1 28
REMARK H PARENT
ROOT
ATOM      1  N   UNL     1     -10.378 -18.469  19.127  1.00  0.00    -0.298 NA
ATOM      2  N   UNL     1     -13.139 -18.464  24.489  1.00  0.00    -0.287 N 
ATOM      3  C   UNL     1     -11.177 -18.060  20.305  1.00  0.00     0.091 C 
ATOM      4  C   UNL     1     -12.583 -17.494  19.994  1.00  0.00    -0.026 C 
ATOM      5  C   UNL     1     -11.241 -19.229  21.352  1.00  0.00     0.061 C 
ATOM      6  C   UNL     1     -12.392 -18.085  17.581  1.00  0.00     0.116 C 
ATOM      7  C   UNL     1     -11.217 -18.990  18.031  1.00  0.00     0.102 C 
ATOM      8  C   UNL     1     -12.091 -18.807  22.510  1.00  0.00    -0.019 A 
ATOM      9  C   UNL     1     -13.370 -17.073  21.175  1.00  0.00    -0.011 A 
ATOM     10  C   UNL     1     -13.056 -17.792  22.346  1.00  0.00     0.011 A 
ATOM     11  C   UNL     1     -13.112 -17.486  18.757  1.00  0.00    -0.007 C 
ATOM     12  C   UNL     1     -13.703 -17.568  23.562  1.00  0.00     0.056 A 
ATOM     13  C   UNL     1     -12.156 -19.204  23.818  1.00  0.00     0.099 A 
ATOM     14  C   UNL     1      -9.501 -17.394  18.666  1.00  0.00     0.106 C 
ATOM     15  C   UNL     1     -14.364 -16.100  21.240  1.00  0.00     0.009 A 
ATOM     16  C   UNL     1     -14.705 -16.578  23.617  1.00  0.00     0.027 A 
ATOM     17  C   UNL     1     -15.017 -15.858  22.449  1.00  0.00     0.003 A 
ENDROOT
BRANCH   6  18
ATOM     18  C   UNL     1     -11.995 -17.166  16.396  1.00  0.00     0.230 C 
ATOM     19  O   UNL     1     -10.809 -16.909  16.168  1.00  0.00    -0.274 OA
ATOM     20  N   UNL     1     -12.998 -16.828  15.472  1.00  0.00    -0.343 N 
BRANCH  20  21
ATOM     21  C   UNL     1     -14.001 -15.842  15.900  1.00  0.00     0.116 C 
ATOM     22  C   UNL     1     -13.409 -14.620  16.595  1.00  0.00     0.027 C 
ENDBRANCH  20  21
BRANCH  20  23
ATOM     23  C   UNL     1     -12.540 -16.739  14.082  1.00  0.00     0.116 C 
ATOM     24  C   UNL     1     -13.151 -15.583  13.305  1.00  0.00     0.027 C 
ENDBRANCH  20  23
ENDBRANCH   6  18
BRANCH   2  25
ATOM     25  C   UNL     1     -13.418 -18.678  25.862  1.00  0.00     0.230 C 
ATOM     26  O   UNL     1     -12.478 -18.852  26.633  1.00  0.00    -0.274 OA
BRANCH  25  27
ATOM     27  C   UNL     1     -14.861 -18.677  26.279  1.00  0.00     0.097 C 
ATOM     28  C   UNL     1     -15.466 -20.073  26.224  1.00  0.00     0.014 C 
ENDBRANCH  25  27
ENDBRANCH   2  25
TORSDOF 5
ENDMDL
MODEL 19
REMARK VINA RESULT:    -8.179      3.663      4.852
REMARK INTER + INTRA:         -11.300
REMARK INTER:                 -10.765
REMARK INTRA:                  -0.536
REMARK UNBOUND:                -0.730
REMARK SMILES CCC(=O)n1cc2c3c(cccc31)C1=C[C@@H](C(=O)N(CC)CC)CN(C)[C@@H]1C2
REMARK SMILES IDX 25 1 5 2 27 3 14 4 28 5 16 6 24 7 7 8 9 9 8 10 15 11 13 12
REMARK SMILES IDX 6 13 26 14 10 15 12 16 11 17 17 18 18 19 19 20 20 21 21 22
REMARK SMILES IDX 22 23 23 24 3 25 4 26 2 27 1 28
REMARK H PARENT
ROOT
ATOM      1  N   UNL     1     -13.854 -17.739  24.283  1.00  0.00    -0.298 NA
ATOM      2  N   UNL     1      -8.329 -20.023  23.493  1.00  0.00    -0.287 N 
ATOM      3  C   UNL     1     -12.706 -18.508  23.752  1.00  0.00     0.091 C 
ATOM      4  C   UNL     1     -12.477 -18.399  22.225  1.00  0.00    -0.026 C 
ATOM      5  C   UNL     1     -11.402 -18.167  24.559  1.00  0.00     0.061 C 
ATOM      6  C   UNL     1     -14.216 -16.629  21.996  1.00  0.00     0.116 C 
ATOM      7  C   UNL     1     -14.090 -16.490  23.534  1.00  0.00     0.102 C 
ATOM      8  C   UNL     1     -10.249 -18.921  23.974  1.00  0.00    -0.019 A 
ATOM      9  C   UNL     1     -11.336 -19.182  21.699  1.00  0.00    -0.011 A 
ATOM     10  C   UNL     1     -10.300 -19.364  22.636  1.00  0.00     0.011 A 
ATOM     11  C   UNL     1     -13.182 -17.566  21.437  1.00  0.00    -0.007 C 
ATOM     12  C   UNL     1      -9.124 -20.050  22.331  1.00  0.00     0.056 A 
ATOM     13  C   UNL     1      -9.045 -19.331  24.479  1.00  0.00     0.099 A 
ATOM     14  C   UNL     1     -15.065 -18.554  24.358  1.00  0.00     0.106 C 
ATOM     15  C   UNL     1     -11.179 -19.713  20.422  1.00  0.00     0.009 A 
ATOM     16  C   UNL     1      -8.975 -20.587  21.036  1.00  0.00     0.027 A 
ATOM     17  C   UNL     1     -10.012 -20.408  20.102  1.00  0.00     0.003 A 
ENDROOT
BRANCH   6  18
ATOM     18  C   UNL     1     -15.692 -16.786  21.547  1.00  0.00     0.230 C 
ATOM     19  O   UNL     1     -16.209 -17.904  21.462  1.00  0.00    -0.274 OA
ATOM     20  N   UNL     1     -16.473 -15.621  21.461  1.00  0.00    -0.343 N 
BRANCH  20  21
ATOM     21  C   UNL     1     -16.223 -14.726  20.323  1.00  0.00     0.116 C 
ATOM     22  C   UNL     1     -15.559 -15.411  19.133  1.00  0.00     0.027 C 
ENDBRANCH  20  21
BRANCH  20  23
ATOM     23  C   UNL     1     -17.872 -15.796  21.865  1.00  0.00     0.116 C 
ATOM     24  C   UNL     1     -18.877 -15.293  20.840  1.00  0.00     0.027 C 
ENDBRANCH  20  23
ENDBRANCH   6  18
BRANCH   2  25
ATOM     25  C   UNL     1      -7.041 -20.555  23.750  1.00  0.00     0.230 C 
ATOM     26  O   UNL     1      -6.886 -21.273  24.734  1.00  0.00    -0.274 OA
BRANCH  25  27
ATOM     27  C   UNL     1      -5.944 -20.196  22.787  1.00  0.00     0.097 C 
ATOM     28  C   UNL     1      -6.044 -18.747  22.332  1.00  0.00     0.014 C 
ENDBRANCH  25  27
ENDBRANCH   2  25
TORSDOF 5
ENDMDL
MODEL 20
REMARK VINA RESULT:    -8.079      2.558      8.671
REMARK INTER + INTRA:         -11.171
REMARK INTER:                 -11.168
REMARK INTRA:                  -0.003
REMARK UNBOUND:                -0.730
REMARK SMILES CCC(=O)n1cc2c3c(cccc31)C1=C[C@@H](C(=O)N(CC)CC)CN(C)[C@@H]1C2
REMARK SMILES IDX 25 1 5 2 27 3 14 4 28 5 16 6 24 7 7 8 9 9 8 10 15 11 13 12
REMARK SMILES IDX 6 13 26 14 10 15 12 16 11 17 17 18 18 19 19 20 20 21 21 22
REMARK SMILES IDX 22 23 23 24 3 25 4 26 2 27 1 28
REMARK H PARENT
ROOT
ATOM      1  N   UNL     1     -13.615 -17.060  22.426  1.00  0.00    -0.298 NA
ATOM      2  N   UNL     1     -14.363 -16.004  16.536  1.00  0.00    -0.287 N 
ATOM      3  C   UNL     1     -13.352 -16.782  20.996  1.00  0.00     0.091 C 
ATOM      4  C   UNL     1     -12.297 -17.693  20.322  1.00  0.00    -0.026 C 
ATOM      5  C   UNL     1     -14.699 -16.761  20.188  1.00  0.00     0.061 C 
ATOM      6  C   UNL     1     -12.152 -19.167  22.326  1.00  0.00     0.116 C 
ATOM      7  C   UNL     1     -13.477 -18.491  22.758  1.00  0.00     0.102 C 
ATOM      8  C   UNL     1     -14.402 -16.524  18.740  1.00  0.00    -0.019 A 
ATOM      9  C   UNL     1     -12.028 -17.401  18.896  1.00  0.00    -0.011 A 
ATOM     10  C   UNL     1     -13.132 -16.844  18.218  1.00  0.00     0.011 A 
ATOM     11  C   UNL     1     -11.742 -18.752  20.940  1.00  0.00    -0.007 C 
ATOM     12  C   UNL     1     -13.094 -16.521  16.861  1.00  0.00     0.056 A 
ATOM     13  C   UNL     1     -15.136 -16.015  17.704  1.00  0.00     0.099 A 
ATOM     14  C   UNL     1     -12.793 -16.226  23.301  1.00  0.00     0.106 C 
ATOM     15  C   UNL     1     -10.856 -17.632  18.181  1.00  0.00     0.009 A 
ATOM     16  C   UNL     1     -11.902 -16.756  16.147  1.00  0.00     0.027 A 
ATOM     17  C   UNL     1     -10.800 -17.309  16.825  1.00  0.00     0.003 A 
ENDROOT
BRANCH   6  18
ATOM     18  C   UNL     1     -11.093 -19.144  23.460  1.00  0.00     0.230 C 
ATOM     19  O   UNL     1     -11.280 -18.476  24.482  1.00  0.00    -0.274 OA
ATOM     20  N   UNL     1     -10.039 -20.069  23.384  1.00  0.00    -0.343 N 
BRANCH  20  21
ATOM     21  C   UNL     1      -8.984 -19.808  22.395  1.00  0.00     0.116 C 
ATOM     22  C   UNL     1      -7.672 -19.326  23.005  1.00  0.00     0.027 C 
ENDBRANCH  20  21
BRANCH  20  23
ATOM     23  C   UNL     1      -9.608 -20.608  24.679  1.00  0.00     0.116 C 
ATOM     24  C   UNL     1     -10.455 -21.770  25.175  1.00  0.00     0.027 C 
ENDBRANCH  20  23
ENDBRANCH   6  18
BRANCH   2  25
ATOM     25  C   UNL     1     -14.884 -15.528  15.307  1.00  0.00     0.230 C 
ATOM     26  O   UNL     1     -14.113 -15.367  14.364  1.00  0.00    -0.274 OA
BRANCH  25  27
ATOM     27  C   UNL     1     -16.360 -15.250  15.247  1.00  0.00     0.097 C 
ATOM     28  C   UNL     1     -16.791 -14.788  13.862  1.00  0.00     0.014 C 
ENDBRANCH  25  27
ENDBRANCH   2  25
TORSDOF 5
ENDMDL
