MODEL 1
REMARK VINA RESULT:    -8.935      0.000      0.000
REMARK INTER + INTRA:         -12.088
REMARK INTER:                 -11.547
REMARK INTRA:                  -0.541
REMARK UNBOUND:                -0.541
REMARK SMILES CCC(=O)n1cc2c3c(cccc31)C1=C[C@@H](C(=O)N(CC)CC)CN(C)[C@@H]1C2
REMARK SMILES IDX 25 1 5 2 27 3 14 4 28 5 16 6 24 7 7 8 9 9 8 10 15 11 13 12
REMARK SMILES IDX 6 13 26 14 10 15 12 16 11 17 17 18 18 19 19 20 20 21 21 22
REMARK SMILES IDX 22 23 23 24 3 25 4 26 2 27 1 28
REMARK H PARENT
ROOT
ATOM      1  N   UNL     1      95.970 108.197  92.389  1.00  0.00    -0.298 NA
ATOM      2  N   UNL     1      97.632 109.782  97.965  1.00  0.00    -0.287 N 
ATOM      3  C   UNL     1      96.388 108.142  93.808  1.00  0.00     0.091 C 
ATOM      4  C   UNL     1      97.579 107.203  94.118  1.00  0.00    -0.026 C 
ATOM      5  C   UNL     1      96.634 109.591  94.361  1.00  0.00     0.061 C 
ATOM      6  C   UNL     1      97.997 106.781  91.698  1.00  0.00     0.116 C 
ATOM      7  C   UNL     1      97.104 108.024  91.460  1.00  0.00     0.102 C 
ATOM      8  C   UNL     1      97.098 109.506  95.781  1.00  0.00    -0.019 A 
ATOM      9  C   UNL     1      97.982 107.142  95.541  1.00  0.00    -0.011 A 
ATOM     10  C   UNL     1      97.712 108.327  96.254  1.00  0.00     0.011 A 
ATOM     11  C   UNL     1      98.283 106.573  93.160  1.00  0.00    -0.007 C 
ATOM     12  C   UNL     1      98.039 108.484  97.601  1.00  0.00     0.056 A 
ATOM     13  C   UNL     1      97.059 110.378  96.834  1.00  0.00     0.099 A 
ATOM     14  C   UNL     1      94.895 107.250  92.102  1.00  0.00     0.106 C 
ATOM     15  C   UNL     1      98.596 106.088  96.212  1.00  0.00     0.009 A 
ATOM     16  C   UNL     1      98.657 107.410  98.272  1.00  0.00     0.027 A 
ATOM     17  C   UNL     1      98.924 106.225  97.561  1.00  0.00     0.003 A 
ENDROOT
BRANCH   6  18
ATOM     18  C   UNL     1      97.543 105.569  90.843  1.00  0.00     0.230 C 
ATOM     19  O   UNL     1      97.065 104.564  91.379  1.00  0.00    -0.274 OA
ATOM     20  N   UNL     1      97.485 105.741  89.450  1.00  0.00    -0.343 N 
BRANCH  20  21
ATOM     21  C   UNL     1      98.762 105.774  88.723  1.00  0.00     0.116 C 
ATOM     22  C   UNL     1      99.432 107.144  88.714  1.00  0.00     0.027 C 
ENDBRANCH  20  21
BRANCH  20  23
ATOM     23  C   UNL     1      96.374 105.042  88.796  1.00  0.00     0.116 C 
ATOM     24  C   UNL     1      95.005 105.616  89.127  1.00  0.00     0.027 C 
ENDBRANCH  20  23
ENDBRANCH   6  18
BRANCH   2  25
ATOM     25  C   UNL     1      97.725 110.472  99.200  1.00  0.00     0.230 C 
ATOM     26  O   UNL     1      98.830 110.842  99.586  1.00  0.00    -0.274 OA
BRANCH  25  27
ATOM     27  C   UNL     1      96.447 110.702  99.957  1.00  0.00     0.097 C 
ATOM     28  C   UNL     1      96.048 112.171  99.958  1.00  0.00     0.014 C 
ENDBRANCH  25  27
ENDBRANCH   2  25
TORSDOF 5
ENDMDL
MODEL 2
REMARK VINA RESULT:    -8.449      2.823      3.993
REMARK INTER + INTRA:         -11.460
REMARK INTER:                 -11.129
REMARK INTRA:                  -0.330
REMARK UNBOUND:                -0.541
REMARK SMILES CCC(=O)n1cc2c3c(cccc31)C1=C[C@@H](C(=O)N(CC)CC)CN(C)[C@@H]1C2
REMARK SMILES IDX 25 1 5 2 27 3 14 4 28 5 16 6 24 7 7 8 9 9 8 10 15 11 13 12
REMARK SMILES IDX 6 13 26 14 10 15 12 16 11 17 17 18 18 19 19 20 20 21 21 22
REMARK SMILES IDX 22 23 23 24 3 25 4 26 2 27 1 28
REMARK H PARENT
ROOT
ATOM      1  N   UNL     1      97.142 108.336  95.290  1.00  0.00    -0.298 NA
ATOM      2  N   UNL     1     100.256 105.584  99.660  1.00  0.00    -0.287 N 
ATOM      3  C   UNL     1      97.634 107.323  96.251  1.00  0.00     0.091 C 
ATOM      4  C   UNL     1      97.967 105.936  95.649  1.00  0.00    -0.026 C 
ATOM      5  C   UNL     1      98.839 107.898  97.079  1.00  0.00     0.061 C 
ATOM      6  C   UNL     1      97.639 106.763  93.322  1.00  0.00     0.116 C 
ATOM      7  C   UNL     1      97.737 108.176  93.949  1.00  0.00     0.102 C 
ATOM      8  C   UNL     1      99.346 106.842  98.010  1.00  0.00    -0.019 A 
ATOM      9  C   UNL     1      98.444 104.925  96.619  1.00  0.00    -0.011 A 
ATOM     10  C   UNL     1      99.116 105.480  97.726  1.00  0.00     0.011 A 
ATOM     11  C   UNL     1      97.940 105.687  94.327  1.00  0.00    -0.007 C 
ATOM     12  C   UNL     1      99.667 104.696  98.741  1.00  0.00     0.056 A 
ATOM     13  C   UNL     1     100.040 106.886  99.188  1.00  0.00     0.099 A 
ATOM     14  C   UNL     1      95.682 108.360  95.227  1.00  0.00     0.106 C 
ATOM     15  C   UNL     1      98.325 103.539  96.540  1.00  0.00     0.009 A 
ATOM     16  C   UNL     1      99.538 103.295  98.653  1.00  0.00     0.027 A 
ATOM     17  C   UNL     1      98.864 102.741  97.549  1.00  0.00     0.003 A 
ENDROOT
BRANCH   6  18
ATOM     18  C   UNL     1      96.386 106.616  92.418  1.00  0.00     0.230 C 
ATOM     19  O   UNL     1      95.252 106.761  92.886  1.00  0.00    -0.274 OA
ATOM     20  N   UNL     1      96.590 106.539  91.031  1.00  0.00    -0.343 N 
BRANCH  20  21
ATOM     21  C   UNL     1      97.121 105.277  90.498  1.00  0.00     0.116 C 
ATOM     22  C   UNL     1      98.219 105.459  89.456  1.00  0.00     0.027 C 
ENDBRANCH  20  21
BRANCH  20  23
ATOM     23  C   UNL     1      95.566 107.213  90.227  1.00  0.00     0.116 C 
ATOM     24  C   UNL     1      94.587 106.263  89.554  1.00  0.00     0.027 C 
ENDBRANCH  20  23
ENDBRANCH   6  18
BRANCH   2  25
ATOM     25  C   UNL     1     100.959 105.341 100.867  1.00  0.00     0.230 C 
ATOM     26  O   UNL     1     102.136 104.997 100.803  1.00  0.00    -0.274 OA
BRANCH  25  27
ATOM     27  C   UNL     1     100.201 105.521 102.152  1.00  0.00     0.097 C 
ATOM     28  C   UNL     1     101.047 106.210 103.214  1.00  0.00     0.014 C 
ENDBRANCH  25  27
ENDBRANCH   2  25
TORSDOF 5
ENDMDL
MODEL 3
REMARK VINA RESULT:    -8.274      4.917      7.111
REMARK INTER + INTRA:         -11.233
REMARK INTER:                 -10.291
REMARK INTRA:                  -0.942
REMARK UNBOUND:                -0.541
REMARK SMILES CCC(=O)n1cc2c3c(cccc31)C1=C[C@@H](C(=O)N(CC)CC)CN(C)[C@@H]1C2
REMARK SMILES IDX 25 1 5 2 27 3 14 4 28 5 16 6 24 7 7 8 9 9 8 10 15 11 13 12
REMARK SMILES IDX 6 13 26 14 10 15 12 16 11 17 17 18 18 19 19 20 20 21 21 22
REMARK SMILES IDX 22 23 23 24 3 25 4 26 2 27 1 28
REMARK H PARENT
ROOT
ATOM      1  N   UNL     1      95.762 108.767  97.653  1.00  0.00    -0.298 NA
ATOM      2  N   UNL     1      94.422 113.593  94.294  1.00  0.00    -0.287 N 
ATOM      3  C   UNL     1      95.796 110.112  97.035  1.00  0.00     0.091 C 
ATOM      4  C   UNL     1      97.162 110.543  96.449  1.00  0.00    -0.026 C 
ATOM      5  C   UNL     1      94.642 110.256  95.980  1.00  0.00     0.061 C 
ATOM      6  C   UNL     1      98.141 108.281  96.819  1.00  0.00     0.116 C 
ATOM      7  C   UNL     1      96.673 107.817  96.987  1.00  0.00     0.102 C 
ATOM      8  C   UNL     1      94.726 111.606  95.338  1.00  0.00    -0.019 A 
ATOM      9  C   UNL     1      97.193 111.894  95.846  1.00  0.00    -0.011 A 
ATOM     10  C   UNL     1      95.950 112.305  95.322  1.00  0.00     0.011 A 
ATOM     11  C   UNL     1      98.222 109.717  96.379  1.00  0.00    -0.007 C 
ATOM     12  C   UNL     1      95.773 113.535  94.688  1.00  0.00     0.056 A 
ATOM     13  C   UNL     1      93.810 112.403  94.709  1.00  0.00     0.099 A 
ATOM     14  C   UNL     1      96.009 108.824  99.093  1.00  0.00     0.106 C 
ATOM     15  C   UNL     1      98.282 112.754  95.725  1.00  0.00     0.009 A 
ATOM     16  C   UNL     1      96.881 114.399  94.573  1.00  0.00     0.027 A 
ATOM     17  C   UNL     1      98.120 113.990  95.099  1.00  0.00     0.003 A 
ENDROOT
BRANCH   6  18
ATOM     18  C   UNL     1      99.038 107.804  97.992  1.00  0.00     0.230 C 
ATOM     19  O   UNL     1      99.428 108.601  98.850  1.00  0.00    -0.274 OA
ATOM     20  N   UNL     1      99.199 106.419  98.165  1.00  0.00    -0.343 N 
BRANCH  20  21
ATOM     21  C   UNL     1     100.073 105.720  97.213  1.00  0.00     0.116 C 
ATOM     22  C   UNL     1     101.374 106.457  96.913  1.00  0.00     0.027 C 
ENDBRANCH  20  21
BRANCH  20  23
ATOM     23  C   UNL     1      99.270 105.985  99.564  1.00  0.00     0.116 C 
ATOM     24  C   UNL     1      99.514 104.494  99.734  1.00  0.00     0.027 C 
ENDBRANCH  20  23
ENDBRANCH   6  18
BRANCH   2  25
ATOM     25  C   UNL     1      93.697 114.600  93.610  1.00  0.00     0.230 C 
ATOM     26  O   UNL     1      93.284 114.361  92.477  1.00  0.00    -0.274 OA
BRANCH  25  27
ATOM     27  C   UNL     1      93.485 115.903  94.327  1.00  0.00     0.097 C 
ATOM     28  C   UNL     1      92.596 115.736  95.552  1.00  0.00     0.014 C 
ENDBRANCH  25  27
ENDBRANCH   2  25
TORSDOF 5
ENDMDL
MODEL 4
REMARK VINA RESULT:    -8.243      3.488      8.250
REMARK INTER + INTRA:         -11.193
REMARK INTER:                 -10.569
REMARK INTRA:                  -0.625
REMARK UNBOUND:                -0.541
REMARK SMILES CCC(=O)n1cc2c3c(cccc31)C1=C[C@@H](C(=O)N(CC)CC)CN(C)[C@@H]1C2
REMARK SMILES IDX 25 1 5 2 27 3 14 4 28 5 16 6 24 7 7 8 9 9 8 10 15 11 13 12
REMARK SMILES IDX 6 13 26 14 10 15 12 16 11 17 17 18 18 19 19 20 20 21 21 22
REMARK SMILES IDX 22 23 23 24 3 25 4 26 2 27 1 28
REMARK H PARENT
ROOT
ATOM      1  N   UNL     1     100.389 104.707  97.295  1.00  0.00    -0.298 NA
ATOM      2  N   UNL     1      96.172 108.089  94.620  1.00  0.00    -0.287 N 
ATOM      3  C   UNL     1      99.160 105.494  97.040  1.00  0.00     0.091 C 
ATOM      4  C   UNL     1      98.824 106.570  98.101  1.00  0.00    -0.026 C 
ATOM      5  C   UNL     1      99.193 106.100  95.591  1.00  0.00     0.061 C 
ATOM      6  C   UNL     1     100.992 106.221  99.278  1.00  0.00     0.116 C 
ATOM      7  C   UNL     1     101.430 105.495  97.982  1.00  0.00     0.102 C 
ATOM      8  C   UNL     1      97.964 106.927  95.375  1.00  0.00    -0.019 A 
ATOM      9  C   UNL     1      97.587 107.342  97.847  1.00  0.00    -0.011 A 
ATOM     10  C   UNL     1      97.271 107.464  96.479  1.00  0.00     0.011 A 
ATOM     11  C   UNL     1      99.645 106.872  99.122  1.00  0.00    -0.007 C 
ATOM     12  C   UNL     1      96.160 108.177  96.025  1.00  0.00     0.056 A 
ATOM     13  C   UNL     1      97.282 107.316  94.255  1.00  0.00     0.099 A 
ATOM     14  C   UNL     1     100.099 103.465  98.009  1.00  0.00     0.106 C 
ATOM     15  C   UNL     1      96.753 107.955  98.779  1.00  0.00     0.009 A 
ATOM     16  C   UNL     1      95.321 108.791  96.978  1.00  0.00     0.027 A 
ATOM     17  C   UNL     1      95.635 108.666  98.343  1.00  0.00     0.003 A 
ENDROOT
BRANCH   6  18
ATOM     18  C   UNL     1     101.271 105.369 100.544  1.00  0.00     0.230 C 
ATOM     19  O   UNL     1     102.359 104.805 100.696  1.00  0.00    -0.274 OA
ATOM     20  N   UNL     1     100.344 105.445 101.596  1.00  0.00    -0.343 N 
BRANCH  20  21
ATOM     21  C   UNL     1      99.061 104.752 101.414  1.00  0.00     0.116 C 
ATOM     22  C   UNL     1      99.143 103.241 101.603  1.00  0.00     0.027 C 
ENDBRANCH  20  21
BRANCH  20  23
ATOM     23  C   UNL     1     100.938 105.386 102.936  1.00  0.00     0.116 C 
ATOM     24  C   UNL     1     101.166 106.750 103.568  1.00  0.00     0.027 C 
ENDBRANCH  20  23
ENDBRANCH   6  18
BRANCH   2  25
ATOM     25  C   UNL     1      95.291 108.627  93.649  1.00  0.00     0.230 C 
ATOM     26  O   UNL     1      94.846 109.759  93.821  1.00  0.00    -0.274 OA
BRANCH  25  27
ATOM     27  C   UNL     1      94.960 107.762  92.465  1.00  0.00     0.097 C 
ATOM     28  C   UNL     1      95.662 108.241  91.202  1.00  0.00     0.014 C 
ENDBRANCH  25  27
ENDBRANCH   2  25
TORSDOF 5
ENDMDL
MODEL 5
REMARK VINA RESULT:    -8.137      4.326      7.540
REMARK INTER + INTRA:         -11.057
REMARK INTER:                 -10.297
REMARK INTRA:                  -0.760
REMARK UNBOUND:                -0.541
REMARK SMILES CCC(=O)n1cc2c3c(cccc31)C1=C[C@@H](C(=O)N(CC)CC)CN(C)[C@@H]1C2
REMARK SMILES IDX 25 1 5 2 27 3 14 4 28 5 16 6 24 7 7 8 9 9 8 10 15 11 13 12
REMARK SMILES IDX 6 13 26 14 10 15 12 16 11 17 17 18 18 19 19 20 20 21 21 22
REMARK SMILES IDX 22 23 23 24 3 25 4 26 2 27 1 28
REMARK H PARENT
ROOT
ATOM      1  N   UNL     1      99.351 106.046  96.764  1.00  0.00    -0.298 NA
ATOM      2  N   UNL     1      95.435 110.554  95.919  1.00  0.00    -0.287 N 
ATOM      3  C   UNL     1      98.303 107.067  96.987  1.00  0.00     0.091 C 
ATOM      4  C   UNL     1      98.496 107.961  98.236  1.00  0.00    -0.026 C 
ATOM      5  C   UNL     1      98.092 107.924  95.688  1.00  0.00     0.061 C 
ATOM      6  C   UNL     1     100.764 107.025  98.672  1.00  0.00     0.116 C 
ATOM      7  C   UNL     1     100.681 106.495  97.219  1.00  0.00     0.102 C 
ATOM      8  C   UNL     1      97.061 108.977  95.954  1.00  0.00    -0.019 A 
ATOM      9  C   UNL     1      97.436 108.970  98.461  1.00  0.00    -0.011 A 
ATOM     10  C   UNL     1      96.813 109.405  97.274  1.00  0.00     0.011 A 
ATOM     11  C   UNL     1      99.599 107.917  99.005  1.00  0.00    -0.007 C 
ATOM     12  C   UNL     1      95.807 110.372  97.265  1.00  0.00     0.056 A 
ATOM     13  C   UNL     1      96.216 109.685  95.145  1.00  0.00     0.099 A 
ATOM     14  C   UNL     1      98.991 104.759  97.357  1.00  0.00     0.106 C 
ATOM     15  C   UNL     1      97.028 109.528  99.670  1.00  0.00     0.009 A 
ATOM     16  C   UNL     1      95.398 110.928  98.495  1.00  0.00     0.027 A 
ATOM     17  C   UNL     1      96.019 110.491  99.679  1.00  0.00     0.003 A 
ENDROOT
BRANCH   6  18
ATOM     18  C   UNL     1     101.166 105.911  99.673  1.00  0.00     0.230 C 
ATOM     19  O   UNL     1     102.174 105.225  99.480  1.00  0.00    -0.274 OA
ATOM     20  N   UNL     1     100.483 105.862 100.900  1.00  0.00    -0.343 N 
BRANCH  20  21
ATOM     21  C   UNL     1      99.107 105.348 100.884  1.00  0.00     0.116 C 
ATOM     22  C   UNL     1      98.986 103.890 101.312  1.00  0.00     0.027 C 
ENDBRANCH  20  21
BRANCH  20  23
ATOM     23  C   UNL     1     101.316 105.476 102.045  1.00  0.00     0.116 C 
ATOM     24  C   UNL     1     101.021 106.261 103.313  1.00  0.00     0.027 C 
ENDBRANCH  20  23
ENDBRANCH   6  18
BRANCH   2  25
ATOM     25  C   UNL     1      94.474 111.412  95.329  1.00  0.00     0.230 C 
ATOM     26  O   UNL     1      93.331 110.992  95.167  1.00  0.00    -0.274 OA
BRANCH  25  27
ATOM     27  C   UNL     1      94.930 112.790  94.939  1.00  0.00     0.097 C 
ATOM     28  C   UNL     1      94.981 113.728  96.136  1.00  0.00     0.014 C 
ENDBRANCH  25  27
ENDBRANCH   2  25
TORSDOF 5
ENDMDL
MODEL 6
REMARK VINA RESULT:    -8.092      4.403      7.106
REMARK INTER + INTRA:         -10.998
REMARK INTER:                 -10.071
REMARK INTRA:                  -0.927
REMARK UNBOUND:                -0.541
REMARK SMILES CCC(=O)n1cc2c3c(cccc31)C1=C[C@@H](C(=O)N(CC)CC)CN(C)[C@@H]1C2
REMARK SMILES IDX 25 1 5 2 27 3 14 4 28 5 16 6 24 7 7 8 9 9 8 10 15 11 13 12
REMARK SMILES IDX 6 13 26 14 10 15 12 16 11 17 17 18 18 19 19 20 20 21 21 22
REMARK SMILES IDX 22 23 23 24 3 25 4 26 2 27 1 28
REMARK H PARENT
ROOT
ATOM      1  N   UNL     1      95.378 109.562  96.943  1.00  0.00    -0.298 NA
ATOM      2  N   UNL     1      94.110 114.785  94.208  1.00  0.00    -0.287 N 
ATOM      3  C   UNL     1      95.477 110.943  96.419  1.00  0.00     0.091 C 
ATOM      4  C   UNL     1      96.767 111.266  95.625  1.00  0.00    -0.026 C 
ATOM      5  C   UNL     1      94.187 111.310  95.601  1.00  0.00     0.061 C 
ATOM      6  C   UNL     1      97.498 108.884  95.662  1.00  0.00     0.116 C 
ATOM      7  C   UNL     1      96.033 108.576  96.061  1.00  0.00     0.102 C 
ATOM      8  C   UNL     1      94.332 112.692  95.045  1.00  0.00    -0.019 A 
ATOM      9  C   UNL     1      96.866 112.653  95.117  1.00  0.00    -0.011 A 
ATOM     10  C   UNL     1      95.615 113.246  94.855  1.00  0.00     0.011 A 
ATOM     11  C   UNL     1      97.685 110.334  95.311  1.00  0.00    -0.007 C 
ATOM     12  C   UNL     1      95.489 114.539  94.346  1.00  0.00     0.056 A 
ATOM     13  C   UNL     1      93.431 113.641  94.646  1.00  0.00     0.099 A 
ATOM     14  C   UNL     1      95.874 109.464  98.314  1.00  0.00     0.106 C 
ATOM     15  C   UNL     1      98.019 113.390  94.859  1.00  0.00     0.009 A 
ATOM     16  C   UNL     1      96.663 115.278  94.091  1.00  0.00     0.027 A 
ATOM     17  C   UNL     1      97.911 114.686  94.356  1.00  0.00     0.003 A 
ENDROOT
BRANCH   6  18
ATOM     18  C   UNL     1      98.514 108.206  96.619  1.00  0.00     0.230 C 
ATOM     19  O   UNL     1      99.204 108.884  97.386  1.00  0.00    -0.274 OA
ATOM     20  N   UNL     1      98.459 106.808  96.742  1.00  0.00    -0.343 N 
BRANCH  20  21
ATOM     21  C   UNL     1      98.985 106.014  95.623  1.00  0.00     0.116 C 
ATOM     22  C   UNL     1      97.905 105.445  94.708  1.00  0.00     0.027 C 
ENDBRANCH  20  21
BRANCH  20  23
ATOM     23  C   UNL     1      98.732 106.304  98.092  1.00  0.00     0.116 C 
ATOM     24  C   UNL     1      99.082 104.825  98.138  1.00  0.00     0.027 C 
ENDBRANCH  20  23
ENDBRANCH   6  18
BRANCH   2  25
ATOM     25  C   UNL     1      93.413 115.924  93.733  1.00  0.00     0.230 C 
ATOM     26  O   UNL     1      92.838 116.643  94.546  1.00  0.00    -0.274 OA
BRANCH  25  27
ATOM     27  C   UNL     1      93.426 116.171  92.251  1.00  0.00     0.097 C 
ATOM     28  C   UNL     1      94.406 117.272  91.871  1.00  0.00     0.014 C 
ENDBRANCH  25  27
ENDBRANCH   2  25
TORSDOF 5
ENDMDL
MODEL 7
REMARK VINA RESULT:    -8.056      5.404      6.903
REMARK INTER + INTRA:         -10.952
REMARK INTER:                 -10.197
REMARK INTRA:                  -0.755
REMARK UNBOUND:                -0.541
REMARK SMILES CCC(=O)n1cc2c3c(cccc31)C1=C[C@@H](C(=O)N(CC)CC)CN(C)[C@@H]1C2
REMARK SMILES IDX 25 1 5 2 27 3 14 4 28 5 16 6 24 7 7 8 9 9 8 10 15 11 13 12
REMARK SMILES IDX 6 13 26 14 10 15 12 16 11 17 17 18 18 19 19 20 20 21 21 22
REMARK SMILES IDX 22 23 23 24 3 25 4 26 2 27 1 28
REMARK H PARENT
ROOT
ATOM      1  N   UNL     1     100.994 107.986  97.487  1.00  0.00    -0.298 NA
ATOM      2  N   UNL     1      96.338 111.762  96.831  1.00  0.00    -0.287 N 
ATOM      3  C   UNL     1      99.626 108.526  97.313  1.00  0.00     0.091 C 
ATOM      4  C   UNL     1      98.558 107.966  98.284  1.00  0.00    -0.026 C 
ATOM      5  C   UNL     1      99.655 110.096  97.328  1.00  0.00     0.061 C 
ATOM      6  C   UNL     1     100.274 106.747  99.617  1.00  0.00     0.116 C 
ATOM      7  C   UNL     1     101.296 107.658  98.894  1.00  0.00     0.102 C 
ATOM      8  C   UNL     1      98.258 110.617  97.196  1.00  0.00    -0.019 A 
ATOM      9  C   UNL     1      97.191 108.500  98.095  1.00  0.00    -0.011 A 
ATOM     10  C   UNL     1      97.165 109.808  97.571  1.00  0.00     0.011 A 
ATOM     11  C   UNL     1      98.858 107.143  99.305  1.00  0.00    -0.007 C 
ATOM     12  C   UNL     1      95.976 110.502  97.343  1.00  0.00     0.056 A 
ATOM     13  C   UNL     1      97.737 111.800  96.750  1.00  0.00     0.099 A 
ATOM     14  C   UNL     1     101.243 106.845  96.607  1.00  0.00     0.106 C 
ATOM     15  C   UNL     1      95.980 107.879  98.392  1.00  0.00     0.009 A 
ATOM     16  C   UNL     1      94.756 109.863  97.644  1.00  0.00     0.027 A 
ATOM     17  C   UNL     1      94.782 108.556  98.164  1.00  0.00     0.003 A 
ENDROOT
BRANCH   6  18
ATOM     18  C   UNL     1     100.671 105.249  99.531  1.00  0.00     0.230 C 
ATOM     19  O   UNL     1     101.814 104.883  99.822  1.00  0.00    -0.274 OA
ATOM     20  N   UNL     1      99.641 104.314  99.334  1.00  0.00    -0.343 N 
BRANCH  20  21
ATOM     21  C   UNL     1      99.053 104.234  97.990  1.00  0.00     0.116 C 
ATOM     22  C   UNL     1      99.863 103.390  97.011  1.00  0.00     0.027 C 
ENDBRANCH  20  21
BRANCH  20  23
ATOM     23  C   UNL     1      99.826 103.046 100.047  1.00  0.00     0.116 C 
ATOM     24  C   UNL     1      99.273 103.049 101.464  1.00  0.00     0.027 C 
ENDBRANCH  20  23
ENDBRANCH   6  18
BRANCH   2  25
ATOM     25  C   UNL     1      95.543 112.866  96.433  1.00  0.00     0.230 C 
ATOM     26  O   UNL     1      94.916 113.480  97.293  1.00  0.00    -0.274 OA
BRANCH  25  27
ATOM     27  C   UNL     1      95.523 113.209  94.970  1.00  0.00     0.097 C 
ATOM     28  C   UNL     1      94.122 113.105  94.385  1.00  0.00     0.014 C 
ENDBRANCH  25  27
ENDBRANCH   2  25
TORSDOF 5
ENDMDL
MODEL 8
REMARK VINA RESULT:    -8.045      4.455      7.281
REMARK INTER + INTRA:         -10.937
REMARK INTER:                 -10.088
REMARK INTRA:                  -0.849
REMARK UNBOUND:                -0.541
REMARK SMILES CCC(=O)n1cc2c3c(cccc31)C1=C[C@@H](C(=O)N(CC)CC)CN(C)[C@@H]1C2
REMARK SMILES IDX 25 1 5 2 27 3 14 4 28 5 16 6 24 7 7 8 9 9 8 10 15 11 13 12
REMARK SMILES IDX 6 13 26 14 10 15 12 16 11 17 17 18 18 19 19 20 20 21 21 22
REMARK SMILES IDX 22 23 23 24 3 25 4 26 2 27 1 28
REMARK H PARENT
ROOT
ATOM      1  N   UNL     1      95.057 109.314  96.918  1.00  0.00    -0.298 NA
ATOM      2  N   UNL     1      94.175 114.580  94.114  1.00  0.00    -0.287 N 
ATOM      3  C   UNL     1      95.237 110.695  96.416  1.00  0.00     0.091 C 
ATOM      4  C   UNL     1      96.603 110.991  95.750  1.00  0.00    -0.026 C 
ATOM      5  C   UNL     1      94.039 111.097  95.483  1.00  0.00     0.061 C 
ATOM      6  C   UNL     1      97.272 108.592  95.838  1.00  0.00     0.116 C 
ATOM      7  C   UNL     1      95.769 108.318  96.095  1.00  0.00     0.102 C 
ATOM      8  C   UNL     1      94.268 112.478  94.954  1.00  0.00    -0.019 A 
ATOM      9  C   UNL     1      96.782 112.378  95.264  1.00  0.00    -0.011 A 
ATOM     10  C   UNL     1      95.575 113.002  94.890  1.00  0.00     0.011 A 
ATOM     11  C   UNL     1      97.525 110.039  95.517  1.00  0.00    -0.007 C 
ATOM     12  C   UNL     1      95.529 114.301  94.380  1.00  0.00     0.056 A 
ATOM     13  C   UNL     1      93.431 113.450  94.478  1.00  0.00     0.099 A 
ATOM     14  C   UNL     1      95.418 109.197  98.329  1.00  0.00     0.106 C 
ATOM     15  C   UNL     1      97.971 113.088  95.122  1.00  0.00     0.009 A 
ATOM     16  C   UNL     1      96.738 115.013  94.243  1.00  0.00     0.027 A 
ATOM     17  C   UNL     1      97.942 114.390  94.620  1.00  0.00     0.003 A 
ENDROOT
BRANCH   6  18
ATOM     18  C   UNL     1      98.177 107.886  96.882  1.00  0.00     0.230 C 
ATOM     19  O   UNL     1      97.952 106.720  97.223  1.00  0.00    -0.274 OA
ATOM     20  N   UNL     1      99.371 108.528  97.248  1.00  0.00    -0.343 N 
BRANCH  20  21
ATOM     21  C   UNL     1      99.262 109.695  98.135  1.00  0.00     0.116 C 
ATOM     22  C   UNL     1     100.190 110.845  97.759  1.00  0.00     0.027 C 
ENDBRANCH  20  21
BRANCH  20  23
ATOM     23  C   UNL     1     100.500 107.623  97.488  1.00  0.00     0.116 C 
ATOM     24  C   UNL     1     101.185 107.143  96.218  1.00  0.00     0.027 C 
ENDBRANCH  20  23
ENDBRANCH   6  18
BRANCH   2  25
ATOM     25  C   UNL     1      93.552 115.738  93.585  1.00  0.00     0.230 C 
ATOM     26  O   UNL     1      92.940 116.479  94.350  1.00  0.00    -0.274 OA
BRANCH  25  27
ATOM     27  C   UNL     1      93.686 115.976  92.107  1.00  0.00     0.097 C 
ATOM     28  C   UNL     1      94.552 117.192  91.807  1.00  0.00     0.014 C 
ENDBRANCH  25  27
ENDBRANCH   2  25
TORSDOF 5
ENDMDL
MODEL 9
REMARK VINA RESULT:    -8.029      3.123      8.397
REMARK INTER + INTRA:         -10.917
REMARK INTER:                 -10.132
REMARK INTRA:                  -0.784
REMARK UNBOUND:                -0.541
REMARK SMILES CCC(=O)n1cc2c3c(cccc31)C1=C[C@@H](C(=O)N(CC)CC)CN(C)[C@@H]1C2
REMARK SMILES IDX 25 1 5 2 27 3 14 4 28 5 16 6 24 7 7 8 9 9 8 10 15 11 13 12
REMARK SMILES IDX 6 13 26 14 10 15 12 16 11 17 17 18 18 19 19 20 20 21 21 22
REMARK SMILES IDX 22 23 23 24 3 25 4 26 2 27 1 28
REMARK H PARENT
ROOT
ATOM      1  N   UNL     1      98.838 103.233  96.117  1.00  0.00    -0.298 NA
ATOM      2  N   UNL     1      97.050 105.503  90.823  1.00  0.00    -0.287 N 
ATOM      3  C   UNL     1      98.223 104.101  95.087  1.00  0.00     0.091 C 
ATOM      4  C   UNL     1      98.544 105.610  95.206  1.00  0.00    -0.026 C 
ATOM      5  C   UNL     1      98.543 103.553  93.650  1.00  0.00     0.061 C 
ATOM      6  C   UNL     1     100.208 105.209  97.016  1.00  0.00     0.116 C 
ATOM      7  C   UNL     1     100.156 103.730  96.559  1.00  0.00     0.102 C 
ATOM      8  C   UNL     1      97.949 104.471  92.628  1.00  0.00    -0.019 A 
ATOM      9  C   UNL     1      97.913 106.474  94.182  1.00  0.00    -0.011 A 
ATOM     10  C   UNL     1      97.681 105.816  92.958  1.00  0.00     0.011 A 
ATOM     11  C   UNL     1      99.422 106.104  96.098  1.00  0.00    -0.007 C 
ATOM     12  C   UNL     1      97.120 106.459  91.854  1.00  0.00     0.056 A 
ATOM     13  C   UNL     1      97.560 104.299  91.328  1.00  0.00     0.099 A 
ATOM     14  C   UNL     1      97.942 103.015  97.250  1.00  0.00     0.106 C 
ATOM     15  C   UNL     1      97.563 107.817  94.292  1.00  0.00     0.009 A 
ATOM     16  C   UNL     1      96.766 107.819  91.977  1.00  0.00     0.027 A 
ATOM     17  C   UNL     1      96.995 108.474  93.201  1.00  0.00     0.003 A 
ENDROOT
BRANCH   6  18
ATOM     18  C   UNL     1     100.013 105.349  98.549  1.00  0.00     0.230 C 
ATOM     19  O   UNL     1      98.976 105.837  99.009  1.00  0.00    -0.274 OA
ATOM     20  N   UNL     1     100.941 104.706  99.385  1.00  0.00    -0.343 N 
BRANCH  20  21
ATOM     21  C   UNL     1     102.274 105.312  99.501  1.00  0.00     0.116 C 
ATOM     22  C   UNL     1     102.333 106.767  99.047  1.00  0.00     0.027 C 
ENDBRANCH  20  21
BRANCH  20  23
ATOM     23  C   UNL     1     100.366 104.140 100.610  1.00  0.00     0.116 C 
ATOM     24  C   UNL     1      99.790 102.744 100.432  1.00  0.00     0.027 C 
ENDBRANCH  20  23
ENDBRANCH   6  18
BRANCH   2  25
ATOM     25  C   UNL     1      96.576 105.606  89.492  1.00  0.00     0.230 C 
ATOM     26  O   UNL     1      95.394 105.883  89.307  1.00  0.00    -0.274 OA
BRANCH  25  27
ATOM     27  C   UNL     1      97.567 105.365  88.388  1.00  0.00     0.097 C 
ATOM     28  C   UNL     1      98.909 106.021  88.680  1.00  0.00     0.014 C 
ENDBRANCH  25  27
ENDBRANCH   2  25
TORSDOF 5
ENDMDL
MODEL 10
REMARK VINA RESULT:    -8.011      1.395      8.246
REMARK INTER + INTRA:         -10.893
REMARK INTER:                 -10.253
REMARK INTRA:                  -0.641
REMARK UNBOUND:                -0.541
REMARK SMILES CCC(=O)n1cc2c3c(cccc31)C1=C[C@@H](C(=O)N(CC)CC)CN(C)[C@@H]1C2
REMARK SMILES IDX 25 1 5 2 27 3 14 4 28 5 16 6 24 7 7 8 9 9 8 10 15 11 13 12
REMARK SMILES IDX 6 13 26 14 10 15 12 16 11 17 17 18 18 19 19 20 20 21 21 22
REMARK SMILES IDX 22 23 23 24 3 25 4 26 2 27 1 28
REMARK H PARENT
ROOT
ATOM      1  N   UNL     1      99.167 107.142  97.345  1.00  0.00    -0.298 NA
ATOM      2  N   UNL     1      97.008 106.076  91.816  1.00  0.00    -0.287 N 
ATOM      3  C   UNL     1      98.273 107.069  96.167  1.00  0.00     0.091 C 
ATOM      4  C   UNL     1      97.553 108.387  95.793  1.00  0.00    -0.026 C 
ATOM      5  C   UNL     1      99.039 106.459  94.939  1.00  0.00     0.061 C 
ATOM      6  C   UNL     1      98.862 109.688  97.467  1.00  0.00     0.116 C 
ATOM      7  C   UNL     1      99.810 108.463  97.484  1.00  0.00     0.102 C 
ATOM      8  C   UNL     1      98.129 106.439  93.750  1.00  0.00    -0.019 A 
ATOM      9  C   UNL     1      96.649 108.304  94.623  1.00  0.00    -0.011 A 
ATOM     10  C   UNL     1      97.035 107.327  93.683  1.00  0.00     0.011 A 
ATOM     11  C   UNL     1      97.807 109.559  96.403  1.00  0.00    -0.007 C 
ATOM     12  C   UNL     1      96.333 107.107  92.498  1.00  0.00     0.056 A 
ATOM     13  C   UNL     1      98.096 105.688  92.608  1.00  0.00     0.099 A 
ATOM     14  C   UNL     1      98.479 106.749  98.573  1.00  0.00     0.106 C 
ATOM     15  C   UNL     1      95.521 109.075  94.356  1.00  0.00     0.009 A 
ATOM     16  C   UNL     1      95.190 107.891  92.238  1.00  0.00     0.027 A 
ATOM     17  C   UNL     1      94.803 108.863  93.178  1.00  0.00     0.003 A 
ENDROOT
BRANCH   6  18
ATOM     18  C   UNL     1      98.438 110.114  98.897  1.00  0.00     0.230 C 
ATOM     19  O   UNL     1      99.270 110.554  99.696  1.00  0.00    -0.274 OA
ATOM     20  N   UNL     1      97.062 110.193  99.171  1.00  0.00    -0.343 N 
BRANCH  20  21
ATOM     21  C   UNL     1      96.335 108.926  99.333  1.00  0.00     0.116 C 
ATOM     22  C   UNL     1      94.983 108.896  98.628  1.00  0.00     0.027 C 
ENDBRANCH  20  21
BRANCH  20  23
ATOM     23  C   UNL     1      96.682 111.289 100.068  1.00  0.00     0.116 C 
ATOM     24  C   UNL     1      95.610 112.206  99.500  1.00  0.00     0.027 C 
ENDBRANCH  20  23
ENDBRANCH   6  18
BRANCH   2  25
ATOM     25  C   UNL     1      96.741 105.459  90.568  1.00  0.00     0.230 C 
ATOM     26  O   UNL     1      96.168 104.373  90.560  1.00  0.00    -0.274 OA
BRANCH  25  27
ATOM     27  C   UNL     1      97.187 106.187  89.331  1.00  0.00     0.097 C 
ATOM     28  C   UNL     1      98.578 105.751  88.890  1.00  0.00     0.014 C 
ENDBRANCH  25  27
ENDBRANCH   2  25
TORSDOF 5
ENDMDL
MODEL 11
REMARK VINA RESULT:    -8.007      3.613      7.476
REMARK INTER + INTRA:         -10.888
REMARK INTER:                  -9.935
REMARK INTRA:                  -0.953
REMARK UNBOUND:                -0.541
REMARK SMILES CCC(=O)n1cc2c3c(cccc31)C1=C[C@@H](C(=O)N(CC)CC)CN(C)[C@@H]1C2
REMARK SMILES IDX 25 1 5 2 27 3 14 4 28 5 16 6 24 7 7 8 9 9 8 10 15 11 13 12
REMARK SMILES IDX 6 13 26 14 10 15 12 16 11 17 17 18 18 19 19 20 20 21 21 22
REMARK SMILES IDX 22 23 23 24 3 25 4 26 2 27 1 28
REMARK H PARENT
ROOT
ATOM      1  N   UNL     1      96.731 111.748  97.577  1.00  0.00    -0.298 NA
ATOM      2  N   UNL     1      98.697 106.166  96.418  1.00  0.00    -0.287 N 
ATOM      3  C   UNL     1      96.905 110.409  96.970  1.00  0.00     0.091 C 
ATOM      4  C   UNL     1      97.070 110.389  95.431  1.00  0.00    -0.026 C 
ATOM      5  C   UNL     1      98.067 109.632  97.687  1.00  0.00     0.061 C 
ATOM      6  C   UNL     1      97.210 112.874  95.320  1.00  0.00     0.116 C 
ATOM      7  C   UNL     1      97.467 112.798  96.845  1.00  0.00     0.102 C 
ATOM      8  C   UNL     1      98.252 108.302  97.027  1.00  0.00    -0.019 A 
ATOM      9  C   UNL     1      97.229 109.045  94.830  1.00  0.00    -0.011 A 
ATOM     10  C   UNL     1      97.830 108.110  95.695  1.00  0.00     0.011 A 
ATOM     11  C   UNL     1      97.181 111.508  94.692  1.00  0.00    -0.007 C 
ATOM     12  C   UNL     1      98.093 106.794  95.312  1.00  0.00     0.056 A 
ATOM     13  C   UNL     1      98.777 107.111  97.449  1.00  0.00     0.099 A 
ATOM     14  C   UNL     1      95.320 112.095  97.733  1.00  0.00     0.106 C 
ATOM     15  C   UNL     1      96.883 108.636  93.544  1.00  0.00     0.009 A 
ATOM     16  C   UNL     1      97.736 106.389  94.010  1.00  0.00     0.027 A 
ATOM     17  C   UNL     1      97.133 107.323  93.147  1.00  0.00     0.003 A 
ENDROOT
BRANCH   6  18
ATOM     18  C   UNL     1      96.086 113.884  94.970  1.00  0.00     0.230 C 
ATOM     19  O   UNL     1      95.097 113.526  94.323  1.00  0.00    -0.274 OA
ATOM     20  N   UNL     1      96.122 115.140  95.598  1.00  0.00    -0.343 N 
BRANCH  20  21
ATOM     21  C   UNL     1      97.129 116.100  95.125  1.00  0.00     0.116 C 
ATOM     22  C   UNL     1      97.179 116.245  93.608  1.00  0.00     0.027 C 
ENDBRANCH  20  21
BRANCH  20  23
ATOM     23  C   UNL     1      94.805 115.686  95.944  1.00  0.00     0.116 C 
ATOM     24  C   UNL     1      94.814 117.177  96.240  1.00  0.00     0.027 C 
ENDBRANCH  20  23
ENDBRANCH   6  18
BRANCH   2  25
ATOM     25  C   UNL     1      99.176 104.843  96.587  1.00  0.00     0.230 C 
ATOM     26  O   UNL     1     100.374 104.673  96.799  1.00  0.00    -0.274 OA
BRANCH  25  27
ATOM     27  C   UNL     1      98.171 103.730  96.492  1.00  0.00     0.097 C 
ATOM     28  C   UNL     1      98.417 102.849  95.275  1.00  0.00     0.014 C 
ENDBRANCH  25  27
ENDBRANCH   2  25
TORSDOF 5
ENDMDL
MODEL 12
REMARK VINA RESULT:    -7.949      6.307      9.535
REMARK INTER + INTRA:         -10.813
REMARK INTER:                  -9.899
REMARK INTRA:                  -0.914
REMARK UNBOUND:                -0.541
REMARK SMILES CCC(=O)n1cc2c3c(cccc31)C1=C[C@@H](C(=O)N(CC)CC)CN(C)[C@@H]1C2
REMARK SMILES IDX 25 1 5 2 27 3 14 4 28 5 16 6 24 7 7 8 9 9 8 10 15 11 13 12
REMARK SMILES IDX 6 13 26 14 10 15 12 16 11 17 17 18 18 19 19 20 20 21 21 22
REMARK SMILES IDX 22 23 23 24 3 25 4 26 2 27 1 28
REMARK H PARENT
ROOT
ATOM      1  N   UNL     1      98.214 111.639  98.244  1.00  0.00    -0.298 NA
ATOM      2  N   UNL     1      94.795 114.454  94.150  1.00  0.00    -0.287 N 
ATOM      3  C   UNL     1      97.614 112.681  97.380  1.00  0.00     0.091 C 
ATOM      4  C   UNL     1      98.620 113.571  96.609  1.00  0.00    -0.026 C 
ATOM      5  C   UNL     1      96.549 112.044  96.417  1.00  0.00     0.061 C 
ATOM      6  C   UNL     1     100.551 112.167  97.320  1.00  0.00     0.116 C 
ATOM      7  C   UNL     1      99.480 111.113  97.696  1.00  0.00     0.102 C 
ATOM      8  C   UNL     1      95.991 113.108  95.524  1.00  0.00    -0.019 A 
ATOM      9  C   UNL     1      98.013 114.620  95.759  1.00  0.00    -0.011 A 
ATOM     10  C   UNL     1      96.734 114.280  95.273  1.00  0.00     0.011 A 
ATOM     11  C   UNL     1      99.946 113.346  96.609  1.00  0.00    -0.007 C 
ATOM     12  C   UNL     1      96.003 115.120  94.432  1.00  0.00     0.056 A 
ATOM     13  C   UNL     1      94.817 113.231  94.834  1.00  0.00     0.099 A 
ATOM     14  C   UNL     1      98.379 112.104  99.620  1.00  0.00     0.106 C 
ATOM     15  C   UNL     1      98.563 115.843  95.385  1.00  0.00     0.009 A 
ATOM     16  C   UNL     1      96.567 116.358  94.063  1.00  0.00     0.027 A 
ATOM     17  C   UNL     1      97.842 116.698  94.551  1.00  0.00     0.003 A 
ENDROOT
BRANCH   6  18
ATOM     18  C   UNL     1     101.547 112.422  98.483  1.00  0.00     0.230 C 
ATOM     19  O   UNL     1     102.145 111.482  99.017  1.00  0.00    -0.274 OA
ATOM     20  N   UNL     1     101.908 113.752  98.749  1.00  0.00    -0.343 N 
BRANCH  20  21
ATOM     21  C   UNL     1     100.911 114.599  99.419  1.00  0.00     0.116 C 
ATOM     22  C   UNL     1     100.875 116.034  98.906  1.00  0.00     0.027 C 
ENDBRANCH  20  21
BRANCH  20  23
ATOM     23  C   UNL     1     103.305 113.933  99.157  1.00  0.00     0.116 C 
ATOM     24  C   UNL     1     104.146 114.705  98.152  1.00  0.00     0.027 C 
ENDBRANCH  20  23
ENDBRANCH   6  18
BRANCH   2  25
ATOM     25  C   UNL     1      93.690 114.835  93.350  1.00  0.00     0.230 C 
ATOM     26  O   UNL     1      93.344 114.095  92.432  1.00  0.00    -0.274 OA
BRANCH  25  27
ATOM     27  C   UNL     1      93.013 116.135  93.684  1.00  0.00     0.097 C 
ATOM     28  C   UNL     1      92.404 116.112  95.078  1.00  0.00     0.014 C 
ENDBRANCH  25  27
ENDBRANCH   2  25
TORSDOF 5
ENDMDL
MODEL 13
REMARK VINA RESULT:    -7.935      4.422      6.715
REMARK INTER + INTRA:         -10.795
REMARK INTER:                  -9.856
REMARK INTRA:                  -0.939
REMARK UNBOUND:                -0.541
REMARK SMILES CCC(=O)n1cc2c3c(cccc31)C1=C[C@@H](C(=O)N(CC)CC)CN(C)[C@@H]1C2
REMARK SMILES IDX 25 1 5 2 27 3 14 4 28 5 16 6 24 7 7 8 9 9 8 10 15 11 13 12
REMARK SMILES IDX 6 13 26 14 10 15 12 16 11 17 17 18 18 19 19 20 20 21 21 22
REMARK SMILES IDX 22 23 23 24 3 25 4 26 2 27 1 28
REMARK H PARENT
ROOT
ATOM      1  N   UNL     1      98.155 106.907  96.407  1.00  0.00    -0.298 NA
ATOM      2  N   UNL     1      95.247 112.166  95.899  1.00  0.00    -0.287 N 
ATOM      3  C   UNL     1      97.343 108.107  96.709  1.00  0.00     0.091 C 
ATOM      4  C   UNL     1      97.730 108.868  98.000  1.00  0.00    -0.026 C 
ATOM      5  C   UNL     1      97.300 109.064  95.464  1.00  0.00     0.061 C 
ATOM      6  C   UNL     1      99.760 107.461  98.333  1.00  0.00     0.116 C 
ATOM      7  C   UNL     1      99.555 107.046  96.855  1.00  0.00     0.102 C 
ATOM      8  C   UNL     1      96.512 110.289  95.810  1.00  0.00    -0.019 A 
ATOM      9  C   UNL     1      96.904 110.059  98.304  1.00  0.00    -0.011 A 
ATOM     10  C   UNL     1      96.372 110.681  97.157  1.00  0.00     0.011 A 
ATOM     11  C   UNL     1      98.809 108.552  98.740  1.00  0.00    -0.007 C 
ATOM     12  C   UNL     1      95.588 111.833  97.224  1.00  0.00     0.056 A 
ATOM     13  C   UNL     1      95.823 111.202  95.060  1.00  0.00     0.099 A 
ATOM     14  C   UNL     1      97.543 105.689  96.935  1.00  0.00     0.106 C 
ATOM     15  C   UNL     1      96.633 110.617  99.550  1.00  0.00     0.009 A 
ATOM     16  C   UNL     1      95.316 112.389  98.491  1.00  0.00     0.027 A 
ATOM     17  C   UNL     1      95.845 111.765  99.636  1.00  0.00     0.003 A 
ENDROOT
BRANCH   6  18
ATOM     18  C   UNL     1      99.934 106.231  99.262  1.00  0.00     0.230 C 
ATOM     19  O   UNL     1      99.086 105.967 100.121  1.00  0.00    -0.274 OA
ATOM     20  N   UNL     1     100.953 105.318  98.948  1.00  0.00    -0.343 N 
BRANCH  20  21
ATOM     21  C   UNL     1     102.335 105.727  99.234  1.00  0.00     0.116 C 
ATOM     22  C   UNL     1     103.046 106.373  98.049  1.00  0.00     0.027 C 
ENDBRANCH  20  21
BRANCH  20  23
ATOM     23  C   UNL     1     100.615 103.915  99.211  1.00  0.00     0.116 C 
ATOM     24  C   UNL     1     100.250 103.125  97.964  1.00  0.00     0.027 C 
ENDBRANCH  20  23
ENDBRANCH   6  18
BRANCH   2  25
ATOM     25  C   UNL     1      94.478 113.236  95.379  1.00  0.00     0.230 C 
ATOM     26  O   UNL     1      93.480 112.974  94.713  1.00  0.00    -0.274 OA
BRANCH  25  27
ATOM     27  C   UNL     1      94.948 114.632  95.681  1.00  0.00     0.097 C 
ATOM     28  C   UNL     1      93.916 115.413  96.483  1.00  0.00     0.014 C 
ENDBRANCH  25  27
ENDBRANCH   2  25
TORSDOF 5
ENDMDL
MODEL 14
REMARK VINA RESULT:    -7.902      5.439      7.974
REMARK INTER + INTRA:         -10.752
REMARK INTER:                  -9.981
REMARK INTRA:                  -0.771
REMARK UNBOUND:                -0.541
REMARK SMILES CCC(=O)n1cc2c3c(cccc31)C1=C[C@@H](C(=O)N(CC)CC)CN(C)[C@@H]1C2
REMARK SMILES IDX 25 1 5 2 27 3 14 4 28 5 16 6 24 7 7 8 9 9 8 10 15 11 13 12
REMARK SMILES IDX 6 13 26 14 10 15 12 16 11 17 17 18 18 19 19 20 20 21 21 22
REMARK SMILES IDX 22 23 23 24 3 25 4 26 2 27 1 28
REMARK H PARENT
ROOT
ATOM      1  N   UNL     1      99.470 103.063  97.195  1.00  0.00    -0.298 NA
ATOM      2  N   UNL     1     100.584 102.344 103.078  1.00  0.00    -0.287 N 
ATOM      3  C   UNL     1      99.961 103.272  98.576  1.00  0.00     0.091 C 
ATOM      4  C   UNL     1      99.689 104.673  99.176  1.00  0.00    -0.026 C 
ATOM      5  C   UNL     1      99.441 102.128  99.519  1.00  0.00     0.061 C 
ATOM      6  C   UNL     1      98.273 105.333  97.236  1.00  0.00     0.116 C 
ATOM      7  C   UNL     1      98.234 103.819  96.915  1.00  0.00     0.102 C 
ATOM      8  C   UNL     1      99.912 102.388 100.916  1.00  0.00    -0.019 A 
ATOM      9  C   UNL     1     100.196 104.881 100.552  1.00  0.00    -0.011 A 
ATOM     10  C   UNL     1     100.249 103.697 101.316  1.00  0.00     0.011 A 
ATOM     11  C   UNL     1      98.948 105.606  98.552  1.00  0.00    -0.007 C 
ATOM     12  C   UNL     1     100.671 103.680 102.645  1.00  0.00     0.056 A 
ATOM     13  C   UNL     1     100.121 101.579 101.999  1.00  0.00     0.099 A 
ATOM     14  C   UNL     1     100.505 103.345  96.203  1.00  0.00     0.106 C 
ATOM     15  C   UNL     1     100.584 106.076 101.150  1.00  0.00     0.009 A 
ATOM     16  C   UNL     1     101.065 104.896 103.241  1.00  0.00     0.027 A 
ATOM     17  C   UNL     1     101.015 106.076 102.477  1.00  0.00     0.003 A 
ENDROOT
BRANCH   6  18
ATOM     18  C   UNL     1      98.674 106.178  95.998  1.00  0.00     0.230 C 
ATOM     19  O   UNL     1      99.858 106.454  95.781  1.00  0.00    -0.274 OA
ATOM     20  N   UNL     1      97.686 106.421  95.029  1.00  0.00    -0.343 N 
BRANCH  20  21
ATOM     21  C   UNL     1      96.645 107.404  95.360  1.00  0.00     0.116 C 
ATOM     22  C   UNL     1      97.184 108.687  95.983  1.00  0.00     0.027 C 
ENDBRANCH  20  21
BRANCH  20  23
ATOM     23  C   UNL     1      98.178 106.425  93.647  1.00  0.00     0.116 C 
ATOM     24  C   UNL     1      97.219 107.062  92.654  1.00  0.00     0.027 C 
ENDBRANCH  20  23
ENDBRANCH   6  18
BRANCH   2  25
ATOM     25  C   UNL     1     100.878 101.753 104.332  1.00  0.00     0.230 C 
ATOM     26  O   UNL     1      99.947 101.477 105.086  1.00  0.00    -0.274 OA
BRANCH  25  27
ATOM     27  C   UNL     1     102.325 101.505 104.654  1.00  0.00     0.097 C 
ATOM     28  C   UNL     1     102.784 100.136 104.172  1.00  0.00     0.014 C 
ENDBRANCH  25  27
ENDBRANCH   2  25
TORSDOF 5
ENDMDL
MODEL 15
REMARK VINA RESULT:    -7.893      3.991      9.093
REMARK INTER + INTRA:         -10.741
REMARK INTER:                 -10.354
REMARK INTRA:                  -0.387
REMARK UNBOUND:                -0.541
REMARK SMILES CCC(=O)n1cc2c3c(cccc31)C1=C[C@@H](C(=O)N(CC)CC)CN(C)[C@@H]1C2
REMARK SMILES IDX 25 1 5 2 27 3 14 4 28 5 16 6 24 7 7 8 9 9 8 10 15 11 13 12
REMARK SMILES IDX 6 13 26 14 10 15 12 16 11 17 17 18 18 19 19 20 20 21 21 22
REMARK SMILES IDX 22 23 23 24 3 25 4 26 2 27 1 28
REMARK H PARENT
ROOT
ATOM      1  N   UNL     1     100.217 106.899  99.177  1.00  0.00    -0.298 NA
ATOM      2  N   UNL     1      97.540 106.180  93.821  1.00  0.00    -0.287 N 
ATOM      3  C   UNL     1      99.814 106.354  97.860  1.00  0.00     0.091 C 
ATOM      4  C   UNL     1      99.401 104.862  97.852  1.00  0.00    -0.026 C 
ATOM      5  C   UNL     1      98.711 107.263  97.209  1.00  0.00     0.061 C 
ATOM      6  C   UNL     1      99.495 104.726 100.338  1.00  0.00     0.116 C 
ATOM      7  C   UNL     1      99.482 106.274 100.294  1.00  0.00     0.102 C 
ATOM      8  C   UNL     1      98.289 106.667  95.902  1.00  0.00    -0.019 A 
ATOM      9  C   UNL     1      99.014 104.321  96.529  1.00  0.00    -0.011 A 
ATOM     10  C   UNL     1      98.470 105.290  95.663  1.00  0.00     0.011 A 
ATOM     11  C   UNL     1      99.286 104.129  98.974  1.00  0.00    -0.007 C 
ATOM     12  C   UNL     1      98.017 104.980  94.380  1.00  0.00     0.056 A 
ATOM     13  C   UNL     1      97.723 107.192  94.773  1.00  0.00     0.099 A 
ATOM     14  C   UNL     1     101.662 106.821  99.377  1.00  0.00     0.106 C 
ATOM     15  C   UNL     1      99.106 103.005  96.083  1.00  0.00     0.009 A 
ATOM     16  C   UNL     1      98.117 103.645  93.936  1.00  0.00     0.027 A 
ATOM     17  C   UNL     1      98.664 102.679  94.800  1.00  0.00     0.003 A 
ENDROOT
BRANCH   6  18
ATOM     18  C   UNL     1     100.644 104.181 101.227  1.00  0.00     0.230 C 
ATOM     19  O   UNL     1     101.788 104.636 101.126  1.00  0.00    -0.274 OA
ATOM     20  N   UNL     1     100.297 103.328 102.288  1.00  0.00    -0.343 N 
BRANCH  20  21
ATOM     21  C   UNL     1      99.911 101.952 101.946  1.00  0.00     0.116 C 
ATOM     22  C   UNL     1      98.417 101.679 102.079  1.00  0.00     0.027 C 
ENDBRANCH  20  21
BRANCH  20  23
ATOM     23  C   UNL     1     101.107 103.503 103.498  1.00  0.00     0.116 C 
ATOM     24  C   UNL     1     101.511 102.196 104.163  1.00  0.00     0.027 C 
ENDBRANCH  20  23
ENDBRANCH   6  18
BRANCH   2  25
ATOM     25  C   UNL     1      96.964 106.450  92.554  1.00  0.00     0.230 C 
ATOM     26  O   UNL     1      95.758 106.677  92.492  1.00  0.00    -0.274 OA
BRANCH  25  27
ATOM     27  C   UNL     1      97.882 106.437  91.364  1.00  0.00     0.097 C 
ATOM     28  C   UNL     1      97.677 105.196  90.506  1.00  0.00     0.014 C 
ENDBRANCH  25  27
ENDBRANCH   2  25
TORSDOF 5
ENDMDL
MODEL 16
REMARK VINA RESULT:    -7.828      3.823      7.075
REMARK INTER + INTRA:         -10.657
REMARK INTER:                  -9.646
REMARK INTRA:                  -1.011
REMARK UNBOUND:                -0.541
REMARK SMILES CCC(=O)n1cc2c3c(cccc31)C1=C[C@@H](C(=O)N(CC)CC)CN(C)[C@@H]1C2
REMARK SMILES IDX 25 1 5 2 27 3 14 4 28 5 16 6 24 7 7 8 9 9 8 10 15 11 13 12
REMARK SMILES IDX 6 13 26 14 10 15 12 16 11 17 17 18 18 19 19 20 20 21 21 22
REMARK SMILES IDX 22 23 23 24 3 25 4 26 2 27 1 28
REMARK H PARENT
ROOT
ATOM      1  N   UNL     1      97.039 111.886  97.640  1.00  0.00    -0.298 NA
ATOM      2  N   UNL     1     100.074 106.718  96.970  1.00  0.00    -0.287 N 
ATOM      3  C   UNL     1      97.410 110.504  97.258  1.00  0.00     0.091 C 
ATOM      4  C   UNL     1      97.197 110.142  95.768  1.00  0.00    -0.026 C 
ATOM      5  C   UNL     1      98.874 110.183  97.728  1.00  0.00     0.061 C 
ATOM      6  C   UNL     1      96.641 112.499  95.179  1.00  0.00     0.116 C 
ATOM      7  C   UNL     1      97.270 112.853  96.549  1.00  0.00     0.102 C 
ATOM      8  C   UNL     1      99.240 108.799  97.291  1.00  0.00    -0.019 A 
ATOM      9  C   UNL     1      97.555 108.755  95.397  1.00  0.00    -0.011 A 
ATOM     10  C   UNL     1      98.574 108.204  96.200  1.00  0.00     0.011 A 
ATOM     11  C   UNL     1      96.824 111.044  94.842  1.00  0.00    -0.007 C 
ATOM     12  C   UNL     1      99.076 106.917  95.998  1.00  0.00     0.056 A 
ATOM     13  C   UNL     1     100.147 107.882  97.746  1.00  0.00     0.099 A 
ATOM     14  C   UNL     1      95.668 111.962  98.141  1.00  0.00     0.106 C 
ATOM     15  C   UNL     1      97.029 107.981  94.366  1.00  0.00     0.009 A 
ATOM     16  C   UNL     1      98.535 106.141  94.953  1.00  0.00     0.027 A 
ATOM     17  C   UNL     1      97.515 106.691  94.154  1.00  0.00     0.003 A 
ENDROOT
BRANCH   6  18
ATOM     18  C   UNL     1      95.239 113.139  95.001  1.00  0.00     0.230 C 
ATOM     19  O   UNL     1      94.239 112.431  94.847  1.00  0.00    -0.274 OA
ATOM     20  N   UNL     1      95.118 114.517  95.246  1.00  0.00    -0.343 N 
BRANCH  20  21
ATOM     21  C   UNL     1      95.661 115.430  94.231  1.00  0.00     0.116 C 
ATOM     22  C   UNL     1      96.864 116.238  94.708  1.00  0.00     0.027 C 
ENDBRANCH  20  21
BRANCH  20  23
ATOM     23  C   UNL     1      93.856 114.914  95.879  1.00  0.00     0.116 C 
ATOM     24  C   UNL     1      92.947 115.737  94.979  1.00  0.00     0.027 C 
ENDBRANCH  20  23
ENDBRANCH   6  18
BRANCH   2  25
ATOM     25  C   UNL     1     100.913 105.604  97.224  1.00  0.00     0.230 C 
ATOM     26  O   UNL     1     102.130 105.767  97.203  1.00  0.00    -0.274 OA
BRANCH  25  27
ATOM     27  C   UNL     1     100.244 104.288  97.503  1.00  0.00     0.097 C 
ATOM     28  C   UNL     1      99.356 104.356  98.739  1.00  0.00     0.014 C 
ENDBRANCH  25  27
ENDBRANCH   2  25
TORSDOF 5
ENDMDL
MODEL 17
REMARK VINA RESULT:    -7.806      2.938      7.631
REMARK INTER + INTRA:         -10.629
REMARK INTER:                 -10.151
REMARK INTRA:                  -0.478
REMARK UNBOUND:                -0.541
REMARK SMILES CCC(=O)n1cc2c3c(cccc31)C1=C[C@@H](C(=O)N(CC)CC)CN(C)[C@@H]1C2
REMARK SMILES IDX 25 1 5 2 27 3 14 4 28 5 16 6 24 7 7 8 9 9 8 10 15 11 13 12
REMARK SMILES IDX 6 13 26 14 10 15 12 16 11 17 17 18 18 19 19 20 20 21 21 22
REMARK SMILES IDX 22 23 23 24 3 25 4 26 2 27 1 28
REMARK H PARENT
ROOT
ATOM      1  N   UNL     1      97.397 108.883  98.871  1.00  0.00    -0.298 NA
ATOM      2  N   UNL     1      98.352 104.016  95.440  1.00  0.00    -0.287 N 
ATOM      3  C   UNL     1      97.356 107.911  97.755  1.00  0.00     0.091 C 
ATOM      4  C   UNL     1      97.619 108.499  96.347  1.00  0.00    -0.026 C 
ATOM      5  C   UNL     1      98.300 106.693  98.059  1.00  0.00     0.061 C 
ATOM      6  C   UNL     1      98.231 110.724  97.287  1.00  0.00     0.116 C 
ATOM      7  C   UNL     1      98.365 109.972  98.635  1.00  0.00     0.102 C 
ATOM      8  C   UNL     1      98.276 105.749  96.898  1.00  0.00    -0.019 A 
ATOM      9  C   UNL     1      97.562 107.524  95.235  1.00  0.00    -0.011 A 
ATOM     10  C   UNL     1      97.916 106.214  95.616  1.00  0.00     0.011 A 
ATOM     11  C   UNL     1      97.988 109.777  96.145  1.00  0.00    -0.007 C 
ATOM     12  C   UNL     1      97.953 105.153  94.711  1.00  0.00     0.056 A 
ATOM     13  C   UNL     1      98.538 104.412  96.771  1.00  0.00     0.099 A 
ATOM     14  C   UNL     1      96.069 109.407  99.184  1.00  0.00     0.106 C 
ATOM     15  C   UNL     1      97.233 107.763  93.903  1.00  0.00     0.009 A 
ATOM     16  C   UNL     1      97.615 105.404  93.366  1.00  0.00     0.027 A 
ATOM     17  C   UNL     1      97.257 106.711  92.986  1.00  0.00     0.003 A 
ENDROOT
BRANCH   6  18
ATOM     18  C   UNL     1      97.343 111.990  97.415  1.00  0.00     0.230 C 
ATOM     19  O   UNL     1      97.662 112.909  98.175  1.00  0.00    -0.274 OA
ATOM     20  N   UNL     1      96.303 112.150  96.484  1.00  0.00    -0.343 N 
BRANCH  20  21
ATOM     21  C   UNL     1      95.115 111.302  96.650  1.00  0.00     0.116 C 
ATOM     22  C   UNL     1      94.628 110.659  95.355  1.00  0.00     0.027 C 
ENDBRANCH  20  21
BRANCH  20  23
ATOM     23  C   UNL     1      96.067 113.537  96.068  1.00  0.00     0.116 C 
ATOM     24  C   UNL     1      96.777 113.923  94.780  1.00  0.00     0.027 C 
ENDBRANCH  20  23
ENDBRANCH   6  18
BRANCH   2  25
ATOM     25  C   UNL     1      98.561 102.676  95.030  1.00  0.00     0.230 C 
ATOM     26  O   UNL     1      98.616 101.800  95.888  1.00  0.00    -0.274 OA
BRANCH  25  27
ATOM     27  C   UNL     1      98.703 102.422  93.555  1.00  0.00     0.097 C 
ATOM     28  C   UNL     1      99.284 101.044  93.273  1.00  0.00     0.014 C 
ENDBRANCH  25  27
ENDBRANCH   2  25
TORSDOF 5
ENDMDL
MODEL 18
REMARK VINA RESULT:    -7.716      3.942      8.143
REMARK INTER + INTRA:         -10.512
REMARK INTER:                  -9.882
REMARK INTRA:                  -0.630
REMARK UNBOUND:                -0.541
REMARK SMILES CCC(=O)n1cc2c3c(cccc31)C1=C[C@@H](C(=O)N(CC)CC)CN(C)[C@@H]1C2
REMARK SMILES IDX 25 1 5 2 27 3 14 4 28 5 16 6 24 7 7 8 9 9 8 10 15 11 13 12
REMARK SMILES IDX 6 13 26 14 10 15 12 16 11 17 17 18 18 19 19 20 20 21 21 22
REMARK SMILES IDX 22 23 23 24 3 25 4 26 2 27 1 28
REMARK H PARENT
ROOT
ATOM      1  N   UNL     1      96.945 109.899  97.055  1.00  0.00    -0.298 NA
ATOM      2  N   UNL     1      98.500 104.161  96.043  1.00  0.00    -0.287 N 
ATOM      3  C   UNL     1      97.735 108.673  96.802  1.00  0.00     0.091 C 
ATOM      4  C   UNL     1      98.935 108.444  97.753  1.00  0.00    -0.026 C 
ATOM      5  C   UNL     1      96.792 107.418  96.748  1.00  0.00     0.061 C 
ATOM      6  C   UNL     1      98.268 110.354  99.207  1.00  0.00     0.116 C 
ATOM      7  C   UNL     1      96.901 110.257  98.486  1.00  0.00     0.102 C 
ATOM      8  C   UNL     1      97.618 106.188  96.537  1.00  0.00    -0.019 A 
ATOM      9  C   UNL     1      99.729 107.224  97.485  1.00  0.00    -0.011 A 
ATOM     10  C   UNL     1      98.980 106.182  96.902  1.00  0.00     0.011 A 
ATOM     11  C   UNL     1      99.182 109.224  98.821  1.00  0.00    -0.007 C 
ATOM     12  C   UNL     1      99.535 104.939  96.596  1.00  0.00     0.056 A 
ATOM     13  C   UNL     1      97.344 104.953  96.017  1.00  0.00     0.099 A 
ATOM     14  C   UNL     1      97.405 111.020  96.238  1.00  0.00     0.106 C 
ATOM     15  C   UNL     1     101.076 107.001  97.761  1.00  0.00     0.009 A 
ATOM     16  C   UNL     1     100.900 104.724  96.876  1.00  0.00     0.027 A 
ATOM     17  C   UNL     1     101.648 105.766  97.455  1.00  0.00     0.003 A 
ENDROOT
BRANCH   6  18
ATOM     18  C   UNL     1      98.824 111.802  99.205  1.00  0.00     0.230 C 
ATOM     19  O   UNL     1      98.160 112.732  99.674  1.00  0.00    -0.274 OA
ATOM     20  N   UNL     1     100.175 111.980  98.863  1.00  0.00    -0.343 N 
BRANCH  20  21
ATOM     21  C   UNL     1     100.533 111.841  97.444  1.00  0.00     0.116 C 
ATOM     22  C   UNL     1     100.321 113.110  96.626  1.00  0.00     0.027 C 
ENDBRANCH  20  21
BRANCH  20  23
ATOM     23  C   UNL     1     100.858 113.039  99.613  1.00  0.00     0.116 C 
ATOM     24  C   UNL     1     102.332 112.762  99.865  1.00  0.00     0.027 C 
ENDBRANCH  20  23
ENDBRANCH   6  18
BRANCH   2  25
ATOM     25  C   UNL     1      98.495 102.827  95.565  1.00  0.00     0.230 C 
ATOM     26  O   UNL     1      98.336 101.914  96.371  1.00  0.00    -0.274 OA
BRANCH  25  27
ATOM     27  C   UNL     1      98.688 102.624  94.089  1.00  0.00     0.097 C 
ATOM     28  C   UNL     1      98.809 101.149  93.732  1.00  0.00     0.014 C 
ENDBRANCH  25  27
ENDBRANCH   2  25
TORSDOF 5
ENDMDL
MODEL 19
REMARK VINA RESULT:    -7.707      4.180      6.911
REMARK INTER + INTRA:         -10.501
REMARK INTER:                  -9.557
REMARK INTRA:                  -0.944
REMARK UNBOUND:                -0.541
REMARK SMILES CCC(=O)n1cc2c3c(cccc31)C1=C[C@@H](C(=O)N(CC)CC)CN(C)[C@@H]1C2
REMARK SMILES IDX 25 1 5 2 27 3 14 4 28 5 16 6 24 7 7 8 9 9 8 10 15 11 13 12
REMARK SMILES IDX 6 13 26 14 10 15 12 16 11 17 17 18 18 19 19 20 20 21 21 22
REMARK SMILES IDX 22 23 23 24 3 25 4 26 2 27 1 28
REMARK H PARENT
ROOT
ATOM      1  N   UNL     1      96.815 111.033  98.210  1.00  0.00    -0.298 NA
ATOM      2  N   UNL     1     100.125 105.994  98.346  1.00  0.00    -0.287 N 
ATOM      3  C   UNL     1      97.324 109.669  97.941  1.00  0.00     0.091 C 
ATOM      4  C   UNL     1      97.504 109.306  96.446  1.00  0.00    -0.026 C 
ATOM      5  C   UNL     1      98.636 109.404  98.763  1.00  0.00     0.061 C 
ATOM      6  C   UNL     1      97.019 111.641  95.725  1.00  0.00     0.116 C 
ATOM      7  C   UNL     1      97.271 112.014  97.207  1.00  0.00     0.102 C 
ATOM      8  C   UNL     1      99.154 108.038  98.438  1.00  0.00    -0.019 A 
ATOM      9  C   UNL     1      97.999 107.936  96.184  1.00  0.00    -0.011 A 
ATOM     10  C   UNL     1      98.807 107.422  97.218  1.00  0.00     0.011 A 
ATOM     11  C   UNL     1      97.339 110.198  95.452  1.00  0.00    -0.007 C 
ATOM     12  C   UNL     1      99.394 106.158  97.154  1.00  0.00     0.056 A 
ATOM     13  C   UNL     1      99.956 107.156  99.110  1.00  0.00     0.099 A 
ATOM     14  C   UNL     1      95.360 111.051  98.353  1.00  0.00     0.106 C 
ATOM     15  C   UNL     1      97.779 107.147  95.058  1.00  0.00     0.009 A 
ATOM     16  C   UNL     1      99.163 105.366  96.011  1.00  0.00     0.027 A 
ATOM     17  C   UNL     1      98.354 105.879  94.980  1.00  0.00     0.003 A 
ENDROOT
BRANCH   6  18
ATOM     18  C   UNL     1      95.681 112.226  95.199  1.00  0.00     0.230 C 
ATOM     19  O   UNL     1      94.748 111.480  94.887  1.00  0.00    -0.274 OA
ATOM     20  N   UNL     1      95.492 113.614  95.305  1.00  0.00    -0.343 N 
BRANCH  20  21
ATOM     21  C   UNL     1      96.232 114.467  94.365  1.00  0.00     0.116 C 
ATOM     22  C   UNL     1      97.486 115.099  94.960  1.00  0.00     0.027 C 
ENDBRANCH  20  21
BRANCH  20  23
ATOM     23  C   UNL     1      94.117 114.018  95.618  1.00  0.00     0.116 C 
ATOM     24  C   UNL     1      94.011 115.390  96.266  1.00  0.00     0.027 C 
ENDBRANCH  20  23
ENDBRANCH   6  18
BRANCH   2  25
ATOM     25  C   UNL     1     100.918 104.914  98.808  1.00  0.00     0.230 C 
ATOM     26  O   UNL     1     102.127 104.937  98.594  1.00  0.00    -0.274 OA
BRANCH  25  27
ATOM     27  C   UNL     1     100.212 103.802  99.532  1.00  0.00     0.097 C 
ATOM     28  C   UNL     1      99.857 102.654  98.597  1.00  0.00     0.014 C 
ENDBRANCH  25  27
ENDBRANCH   2  25
TORSDOF 5
ENDMDL
MODEL 20
REMARK VINA RESULT:    -7.667      4.119      6.551
REMARK INTER + INTRA:         -10.449
REMARK INTER:                  -9.575
REMARK INTRA:                  -0.874
REMARK UNBOUND:                -0.541
REMARK SMILES CCC(=O)n1cc2c3c(cccc31)C1=C[C@@H](C(=O)N(CC)CC)CN(C)[C@@H]1C2
REMARK SMILES IDX 25 1 5 2 27 3 14 4 28 5 16 6 24 7 7 8 9 9 8 10 15 11 13 12
REMARK SMILES IDX 6 13 26 14 10 15 12 16 11 17 17 18 18 19 19 20 20 21 21 22
REMARK SMILES IDX 22 23 23 24 3 25 4 26 2 27 1 28
REMARK H PARENT
ROOT
ATOM      1  N   UNL     1      95.773 108.743  95.675  1.00  0.00    -0.298 NA
ATOM      2  N   UNL     1     100.151 107.189  99.520  1.00  0.00    -0.287 N 
ATOM      3  C   UNL     1      97.031 108.736  96.455  1.00  0.00     0.091 C 
ATOM      4  C   UNL     1      97.381 110.063  97.170  1.00  0.00    -0.026 C 
ATOM      5  C   UNL     1      97.047 107.521  97.450  1.00  0.00     0.061 C 
ATOM      6  C   UNL     1      95.180 111.071  96.581  1.00  0.00     0.116 C 
ATOM      7  C   UNL     1      94.744 109.617  96.271  1.00  0.00     0.102 C 
ATOM      8  C   UNL     1      98.307 107.562  98.258  1.00  0.00    -0.019 A 
ATOM      9  C   UNL     1      98.648 110.053  97.936  1.00  0.00    -0.011 A 
ATOM     10  C   UNL     1      98.995 108.780  98.432  1.00  0.00     0.011 A 
ATOM     11  C   UNL     1      96.550 111.121  97.199  1.00  0.00    -0.007 C 
ATOM     12  C   UNL     1     100.137 108.561  99.203  1.00  0.00     0.056 A 
ATOM     13  C   UNL     1      99.023 106.607  98.926  1.00  0.00     0.099 A 
ATOM     14  C   UNL     1      96.007 109.075  94.271  1.00  0.00     0.106 C 
ATOM     15  C   UNL     1      99.482 111.130  98.227  1.00  0.00     0.009 A 
ATOM     16  C   UNL     1     100.977 109.657  99.488  1.00  0.00     0.027 A 
ATOM     17  C   UNL     1     100.632 110.927  98.990  1.00  0.00     0.003 A 
ENDROOT
BRANCH   6  18
ATOM     18  C   UNL     1      94.848 112.037  95.414  1.00  0.00     0.230 C 
ATOM     19  O   UNL     1      93.776 111.946  94.808  1.00  0.00    -0.274 OA
ATOM     20  N   UNL     1      95.694 113.142  95.223  1.00  0.00    -0.343 N 
BRANCH  20  21
ATOM     21  C   UNL     1      97.014 112.883  94.632  1.00  0.00     0.116 C 
ATOM     22  C   UNL     1      98.101 113.842  95.106  1.00  0.00     0.027 C 
ENDBRANCH  20  21
BRANCH  20  23
ATOM     23  C   UNL     1      95.009 114.366  94.794  1.00  0.00     0.116 C 
ATOM     24  C   UNL     1      94.499 115.221  95.943  1.00  0.00     0.027 C 
ENDBRANCH  20  23
ENDBRANCH   6  18
BRANCH   2  25
ATOM     25  C   UNL     1     101.068 106.421 100.280  1.00  0.00     0.230 C 
ATOM     26  O   UNL     1     101.002 106.469 101.505  1.00  0.00    -0.274 OA
BRANCH  25  27
ATOM     27  C   UNL     1     102.069 105.595  99.521  1.00  0.00     0.097 C 
ATOM     28  C   UNL     1     102.850 106.434  98.520  1.00  0.00     0.014 C 
ENDBRANCH  25  27
ENDBRANCH   2  25
TORSDOF 5
ENDMDL
