MODEL 1
REMARK VINA RESULT:    -8.839      0.000      0.000
REMARK INTER + INTRA:         -11.812
REMARK INTER:                 -11.423
REMARK INTRA:                  -0.389
REMARK UNBOUND:                -0.389
REMARK SMILES CCC(=O)n1cc2c3c(cccc31)C1=C[C@@H](C(=O)N(CC)CC)CN(C)[C@@H]1C2
REMARK SMILES IDX 25 1 5 2 27 3 14 4 28 5 16 6 24 7 7 8 9 9 8 10 15 11 13 12
REMARK SMILES IDX 6 13 26 14 10 15 12 16 11 17 17 18 18 19 19 20 20 21 21 22
REMARK SMILES IDX 22 23 23 24 3 25 4 26 2 27 1 28
REMARK H PARENT
ROOT
ATOM      1  N   UNL     1     102.966 119.331 111.729  1.00  0.00    -0.298 NA
ATOM      2  N   UNL     1     104.111 114.510 108.291  1.00  0.00    -0.287 N 
ATOM      3  C   UNL     1     103.095 117.936 111.249  1.00  0.00     0.091 C 
ATOM      4  C   UNL     1     101.840 117.049 111.430  1.00  0.00    -0.026 C 
ATOM      5  C   UNL     1     103.609 117.916 109.765  1.00  0.00     0.061 C 
ATOM      6  C   UNL     1     100.461 118.987 112.170  1.00  0.00     0.116 C 
ATOM      7  C   UNL     1     101.596 119.856 111.574  1.00  0.00     0.102 C 
ATOM      8  C   UNL     1     103.688 116.499 109.289  1.00  0.00    -0.019 A 
ATOM      9  C   UNL     1     101.981 115.652 110.962  1.00  0.00    -0.011 A 
ATOM     10  C   UNL     1     102.900 115.504 109.903  1.00  0.00     0.011 A 
ATOM     11  C   UNL     1     100.662 117.527 111.871  1.00  0.00    -0.007 C 
ATOM     12  C   UNL     1     103.159 114.272 109.300  1.00  0.00     0.056 A 
ATOM     13  C   UNL     1     104.416 115.878 108.312  1.00  0.00     0.099 A 
ATOM     14  C   UNL     1     103.443 119.479 113.103  1.00  0.00     0.106 C 
ATOM     15  C   UNL     1     101.309 114.522 111.422  1.00  0.00     0.009 A 
ATOM     16  C   UNL     1     102.476 113.134 109.776  1.00  0.00     0.027 A 
ATOM     17  C   UNL     1     101.561 113.282 110.835  1.00  0.00     0.003 A 
ENDROOT
BRANCH   6  18
ATOM     18  C   UNL     1     100.103 119.414 113.619  1.00  0.00     0.230 C 
ATOM     19  O   UNL     1     100.832 119.101 114.565  1.00  0.00    -0.274 OA
ATOM     20  N   UNL     1      99.064 120.344 113.785  1.00  0.00    -0.343 N 
BRANCH  20  21
ATOM     21  C   UNL     1      97.691 119.859 113.590  1.00  0.00     0.116 C 
ATOM     22  C   UNL     1      97.015 120.404 112.336  1.00  0.00     0.027 C 
ENDBRANCH  20  21
BRANCH  20  23
ATOM     23  C   UNL     1      99.275 121.304 114.874  1.00  0.00     0.116 C 
ATOM     24  C   UNL     1      98.315 121.132 116.040  1.00  0.00     0.027 C 
ENDBRANCH  20  23
ENDBRANCH   6  18
BRANCH   2  25
ATOM     25  C   UNL     1     104.725 113.629 107.367  1.00  0.00     0.230 C 
ATOM     26  O   UNL     1     105.878 113.857 107.012  1.00  0.00    -0.274 OA
BRANCH  25  27
ATOM     27  C   UNL     1     103.908 112.465 106.880  1.00  0.00     0.097 C 
ATOM     28  C   UNL     1     103.269 112.750 105.528  1.00  0.00     0.014 C 
ENDBRANCH  25  27
ENDBRANCH   2  25
TORSDOF 5
ENDMDL
MODEL 2
REMARK VINA RESULT:    -8.570      1.219      1.470
REMARK INTER + INTRA:         -11.464
REMARK INTER:                 -11.399
REMARK INTRA:                  -0.064
REMARK UNBOUND:                -0.389
REMARK SMILES CCC(=O)n1cc2c3c(cccc31)C1=C[C@@H](C(=O)N(CC)CC)CN(C)[C@@H]1C2
REMARK SMILES IDX 25 1 5 2 27 3 14 4 28 5 16 6 24 7 7 8 9 9 8 10 15 11 13 12
REMARK SMILES IDX 6 13 26 14 10 15 12 16 11 17 17 18 18 19 19 20 20 21 21 22
REMARK SMILES IDX 22 23 23 24 3 25 4 26 2 27 1 28
REMARK H PARENT
ROOT
ATOM      1  N   UNL     1     102.936 118.897 111.255  1.00  0.00    -0.298 NA
ATOM      2  N   UNL     1     103.572 114.134 107.610  1.00  0.00    -0.287 N 
ATOM      3  C   UNL     1     103.056 117.510 110.750  1.00  0.00     0.091 C 
ATOM      4  C   UNL     1     101.967 116.524 111.239  1.00  0.00    -0.026 C 
ATOM      5  C   UNL     1     103.176 117.510 109.184  1.00  0.00     0.061 C 
ATOM      6  C   UNL     1     100.663 118.353 112.317  1.00  0.00     0.116 C 
ATOM      7  C   UNL     1     101.532 119.304 111.457  1.00  0.00     0.102 C 
ATOM      8  C   UNL     1     103.250 116.097 108.695  1.00  0.00    -0.019 A 
ATOM      9  C   UNL     1     102.102 115.137 110.741  1.00  0.00    -0.011 A 
ATOM     10  C   UNL     1     102.731 115.049 109.483  1.00  0.00     0.011 A 
ATOM     11  C   UNL     1     100.904 116.911 111.968  1.00  0.00    -0.007 C 
ATOM     12  C   UNL     1     102.931 113.834 108.827  1.00  0.00     0.056 A 
ATOM     13  C   UNL     1     103.756 115.523 107.562  1.00  0.00     0.099 A 
ATOM     14  C   UNL     1     103.732 119.105 112.464  1.00  0.00     0.106 C 
ATOM     15  C   UNL     1     101.666 113.963 111.351  1.00  0.00     0.009 A 
ATOM     16  C   UNL     1     102.489 112.651 109.454  1.00  0.00     0.027 A 
ATOM     17  C   UNL     1     101.864 112.739 110.711  1.00  0.00     0.003 A 
ENDROOT
BRANCH   6  18
ATOM     18  C   UNL     1     100.650 118.771 113.811  1.00  0.00     0.230 C 
ATOM     19  O   UNL     1     101.673 119.200 114.353  1.00  0.00    -0.274 OA
ATOM     20  N   UNL     1      99.403 118.857 114.452  1.00  0.00    -0.343 N 
BRANCH  20  21
ATOM     21  C   UNL     1      98.738 117.595 114.801  1.00  0.00     0.116 C 
ATOM     22  C   UNL     1      98.616 117.355 116.302  1.00  0.00     0.027 C 
ENDBRANCH  20  21
BRANCH  20  23
ATOM     23  C   UNL     1      99.293 119.950 115.424  1.00  0.00     0.116 C 
ATOM     24  C   UNL     1      98.637 121.205 114.869  1.00  0.00     0.027 C 
ENDBRANCH  20  23
ENDBRANCH   6  18
BRANCH   2  25
ATOM     25  C   UNL     1     104.003 113.292 106.555  1.00  0.00     0.230 C 
ATOM     26  O   UNL     1     105.207 113.095 106.414  1.00  0.00    -0.274 OA
BRANCH  25  27
ATOM     27  C   UNL     1     102.942 112.696 105.673  1.00  0.00     0.097 C 
ATOM     28  C   UNL     1     101.569 113.284 105.965  1.00  0.00     0.014 C 
ENDBRANCH  25  27
ENDBRANCH   2  25
TORSDOF 5
ENDMDL
MODEL 3
REMARK VINA RESULT:    -8.424      3.213      4.409
REMARK INTER + INTRA:         -11.275
REMARK INTER:                 -10.708
REMARK INTRA:                  -0.567
REMARK UNBOUND:                -0.389
REMARK SMILES CCC(=O)n1cc2c3c(cccc31)C1=C[C@@H](C(=O)N(CC)CC)CN(C)[C@@H]1C2
REMARK SMILES IDX 25 1 5 2 27 3 14 4 28 5 16 6 24 7 7 8 9 9 8 10 15 11 13 12
REMARK SMILES IDX 6 13 26 14 10 15 12 16 11 17 17 18 18 19 19 20 20 21 21 22
REMARK SMILES IDX 22 23 23 24 3 25 4 26 2 27 1 28
REMARK H PARENT
ROOT
ATOM      1  N   UNL     1     100.223 121.875 113.055  1.00  0.00    -0.298 NA
ATOM      2  N   UNL     1     105.263 119.219 111.076  1.00  0.00    -0.287 N 
ATOM      3  C   UNL     1     101.247 120.859 112.721  1.00  0.00     0.091 C 
ATOM      4  C   UNL     1     100.732 119.617 111.954  1.00  0.00    -0.026 C 
ATOM      5  C   UNL     1     102.461 121.532 111.985  1.00  0.00     0.061 C 
ATOM      6  C   UNL     1      98.472 120.623 111.655  1.00  0.00     0.116 C 
ATOM      7  C   UNL     1      99.159 121.958 112.036  1.00  0.00     0.102 C 
ATOM      8  C   UNL     1     103.460 120.479 111.619  1.00  0.00    -0.019 A 
ATOM      9  C   UNL     1     101.759 118.600 111.637  1.00  0.00    -0.011 A 
ATOM     10  C   UNL     1     103.053 119.137 111.481  1.00  0.00     0.011 A 
ATOM     11  C   UNL     1      99.470 119.509 111.500  1.00  0.00    -0.007 C 
ATOM     12  C   UNL     1     104.158 118.350 111.154  1.00  0.00     0.056 A 
ATOM     13  C   UNL     1     104.805 120.511 111.369  1.00  0.00     0.099 A 
ATOM     14  C   UNL     1      99.668 121.667 114.391  1.00  0.00     0.106 C 
ATOM     15  C   UNL     1     101.582 117.230 111.459  1.00  0.00     0.009 A 
ATOM     16  C   UNL     1     103.968 116.964 110.979  1.00  0.00     0.027 A 
ATOM     17  C   UNL     1     102.677 116.428 111.138  1.00  0.00     0.003 A 
ENDROOT
BRANCH   6  18
ATOM     18  C   UNL     1      97.191 120.370 112.492  1.00  0.00     0.230 C 
ATOM     19  O   UNL     1      97.135 119.429 113.290  1.00  0.00    -0.274 OA
ATOM     20  N   UNL     1      96.198 121.364 112.478  1.00  0.00    -0.343 N 
BRANCH  20  21
ATOM     21  C   UNL     1      95.380 121.480 111.263  1.00  0.00     0.116 C 
ATOM     22  C   UNL     1      95.672 120.410 110.217  1.00  0.00     0.027 C 
ENDBRANCH  20  21
BRANCH  20  23
ATOM     23  C   UNL     1      95.506 121.551 113.757  1.00  0.00     0.116 C 
ATOM     24  C   UNL     1      95.993 122.754 114.551  1.00  0.00     0.027 C 
ENDBRANCH  20  23
ENDBRANCH   6  18
BRANCH   2  25
ATOM     25  C   UNL     1     106.624 118.966 110.773  1.00  0.00     0.230 C 
ATOM     26  O   UNL     1     107.489 119.525 111.442  1.00  0.00    -0.274 OA
BRANCH  25  27
ATOM     27  C   UNL     1     106.913 118.022 109.640  1.00  0.00     0.097 C 
ATOM     28  C   UNL     1     106.194 118.435 108.364  1.00  0.00     0.014 C 
ENDBRANCH  25  27
ENDBRANCH   2  25
TORSDOF 5
ENDMDL
MODEL 4
REMARK VINA RESULT:    -8.334      3.276      5.939
REMARK INTER + INTRA:         -11.158
REMARK INTER:                 -10.634
REMARK INTRA:                  -0.524
REMARK UNBOUND:                -0.389
REMARK SMILES CCC(=O)n1cc2c3c(cccc31)C1=C[C@@H](C(=O)N(CC)CC)CN(C)[C@@H]1C2
REMARK SMILES IDX 25 1 5 2 27 3 14 4 28 5 16 6 24 7 7 8 9 9 8 10 15 11 13 12
REMARK SMILES IDX 6 13 26 14 10 15 12 16 11 17 17 18 18 19 19 20 20 21 21 22
REMARK SMILES IDX 22 23 23 24 3 25 4 26 2 27 1 28
REMARK H PARENT
ROOT
ATOM      1  N   UNL     1      97.197 119.554 112.552  1.00  0.00    -0.298 NA
ATOM      2  N   UNL     1     103.070 118.878 111.361  1.00  0.00    -0.287 N 
ATOM      3  C   UNL     1      98.605 119.828 112.185  1.00  0.00     0.091 C 
ATOM      4  C   UNL     1      99.269 121.015 112.924  1.00  0.00    -0.026 C 
ATOM      5  C   UNL     1      99.463 118.518 112.303  1.00  0.00     0.061 C 
ATOM      6  C   UNL     1      97.315 121.282 114.447  1.00  0.00     0.116 C 
ATOM      7  C   UNL     1      96.912 119.866 113.966  1.00  0.00     0.102 C 
ATOM      8  C   UNL     1     100.889 118.832 111.971  1.00  0.00    -0.019 A 
ATOM      9  C   UNL     1     100.672 121.292 112.541  1.00  0.00    -0.011 A 
ATOM     10  C   UNL     1     101.372 120.150 112.104  1.00  0.00     0.011 A 
ATOM     11  C   UNL     1      98.668 121.681 113.927  1.00  0.00    -0.007 C 
ATOM     12  C   UNL     1     102.714 120.191 111.724  1.00  0.00     0.056 A 
ATOM     13  C   UNL     1     101.934 118.073 111.519  1.00  0.00     0.099 A 
ATOM     14  C   UNL     1      96.260 120.231 111.656  1.00  0.00     0.106 C 
ATOM     15  C   UNL     1     101.349 122.508 112.591  1.00  0.00     0.009 A 
ATOM     16  C   UNL     1     103.389 121.428 111.774  1.00  0.00     0.027 A 
ATOM     17  C   UNL     1     102.689 122.569 112.207  1.00  0.00     0.003 A 
ENDROOT
BRANCH   6  18
ATOM     18  C   UNL     1      96.141 122.289 114.335  1.00  0.00     0.230 C 
ATOM     19  O   UNL     1      95.754 122.684 113.230  1.00  0.00    -0.274 OA
ATOM     20  N   UNL     1      95.399 122.556 115.497  1.00  0.00    -0.343 N 
BRANCH  20  21
ATOM     21  C   UNL     1      96.029 123.406 116.517  1.00  0.00     0.116 C 
ATOM     22  C   UNL     1      96.533 124.742 115.981  1.00  0.00     0.027 C 
ENDBRANCH  20  21
BRANCH  20  23
ATOM     23  C   UNL     1      93.963 122.754 115.271  1.00  0.00     0.116 C 
ATOM     24  C   UNL     1      93.097 121.611 115.776  1.00  0.00     0.027 C 
ENDBRANCH  20  23
ENDBRANCH   6  18
BRANCH   2  25
ATOM     25  C   UNL     1     104.300 118.342 110.906  1.00  0.00     0.230 C 
ATOM     26  O   UNL     1     105.343 118.747 111.414  1.00  0.00    -0.274 OA
BRANCH  25  27
ATOM     27  C   UNL     1     104.240 117.306 109.819  1.00  0.00     0.097 C 
ATOM     28  C   UNL     1     104.083 117.938 108.444  1.00  0.00     0.014 C 
ENDBRANCH  25  27
ENDBRANCH   2  25
TORSDOF 5
ENDMDL
MODEL 5
REMARK VINA RESULT:    -7.932      1.773      3.539
REMARK INTER + INTRA:         -10.640
REMARK INTER:                  -9.647
REMARK INTRA:                  -0.992
REMARK UNBOUND:                -0.389
REMARK SMILES CCC(=O)n1cc2c3c(cccc31)C1=C[C@@H](C(=O)N(CC)CC)CN(C)[C@@H]1C2
REMARK SMILES IDX 25 1 5 2 27 3 14 4 28 5 16 6 24 7 7 8 9 9 8 10 15 11 13 12
REMARK SMILES IDX 6 13 26 14 10 15 12 16 11 17 17 18 18 19 19 20 20 21 21 22
REMARK SMILES IDX 22 23 23 24 3 25 4 26 2 27 1 28
REMARK H PARENT
ROOT
ATOM      1  N   UNL     1      99.177 117.972 112.583  1.00  0.00    -0.298 NA
ATOM      2  N   UNL     1     104.157 115.968 109.834  1.00  0.00    -0.287 N 
ATOM      3  C   UNL     1     100.504 117.915 111.929  1.00  0.00     0.091 C 
ATOM      4  C   UNL     1     101.653 118.623 112.687  1.00  0.00    -0.026 C 
ATOM      5  C   UNL     1     100.873 116.430 111.575  1.00  0.00     0.061 C 
ATOM      6  C   UNL     1     100.213 119.034 114.678  1.00  0.00     0.116 C 
ATOM      7  C   UNL     1      99.273 117.972 114.055  1.00  0.00     0.102 C 
ATOM      8  C   UNL     1     102.237 116.394 110.958  1.00  0.00    -0.019 A 
ATOM      9  C   UNL     1     102.974 118.575 112.020  1.00  0.00    -0.011 A 
ATOM     10  C   UNL     1     103.154 117.435 111.211  1.00  0.00     0.011 A 
ATOM     11  C   UNL     1     101.505 119.148 113.917  1.00  0.00    -0.007 C 
ATOM     12  C   UNL     1     104.339 117.186 110.517  1.00  0.00     0.056 A 
ATOM     13  C   UNL     1     102.863 115.513 110.120  1.00  0.00     0.099 A 
ATOM     14  C   UNL     1      98.382 119.100 112.099  1.00  0.00     0.106 C 
ATOM     15  C   UNL     1     104.021 119.487 112.126  1.00  0.00     0.009 A 
ATOM     16  C   UNL     1     105.391 118.117 110.628  1.00  0.00     0.027 A 
ATOM     17  C   UNL     1     105.210 119.257 111.433  1.00  0.00     0.003 A 
ENDROOT
BRANCH   6  18
ATOM     18  C   UNL     1      99.451 120.330 115.061  1.00  0.00     0.230 C 
ATOM     19  O   UNL     1      99.795 121.422 114.598  1.00  0.00    -0.274 OA
ATOM     20  N   UNL     1      98.239 120.190 115.757  1.00  0.00    -0.343 N 
BRANCH  20  21
ATOM     21  C   UNL     1      98.319 119.820 117.177  1.00  0.00     0.116 C 
ATOM     22  C   UNL     1      97.681 118.473 117.501  1.00  0.00     0.027 C 
ENDBRANCH  20  21
BRANCH  20  23
ATOM     23  C   UNL     1      97.209 121.167 115.390  1.00  0.00     0.116 C 
ATOM     24  C   UNL     1      96.052 120.575 114.601  1.00  0.00     0.027 C 
ENDBRANCH  20  23
ENDBRANCH   6  18
BRANCH   2  25
ATOM     25  C   UNL     1     105.029 115.239 108.988  1.00  0.00     0.230 C 
ATOM     26  O   UNL     1     106.111 114.869 109.437  1.00  0.00    -0.274 OA
BRANCH  25  27
ATOM     27  C   UNL     1     104.562 114.969 107.586  1.00  0.00     0.097 C 
ATOM     28  C   UNL     1     104.470 113.477 107.298  1.00  0.00     0.014 C 
ENDBRANCH  25  27
ENDBRANCH   2  25
TORSDOF 5
ENDMDL
MODEL 6
REMARK VINA RESULT:    -7.929      3.010      8.455
REMARK INTER + INTRA:         -10.636
REMARK INTER:                 -10.201
REMARK INTRA:                  -0.435
REMARK UNBOUND:                -0.389
REMARK SMILES CCC(=O)n1cc2c3c(cccc31)C1=C[C@@H](C(=O)N(CC)CC)CN(C)[C@@H]1C2
REMARK SMILES IDX 25 1 5 2 27 3 14 4 28 5 16 6 24 7 7 8 9 9 8 10 15 11 13 12
REMARK SMILES IDX 6 13 26 14 10 15 12 16 11 17 17 18 18 19 19 20 20 21 21 22
REMARK SMILES IDX 22 23 23 24 3 25 4 26 2 27 1 28
REMARK H PARENT
ROOT
ATOM      1  N   UNL     1     102.709 119.479 113.056  1.00  0.00    -0.298 NA
ATOM      2  N   UNL     1      96.724 119.901 113.668  1.00  0.00    -0.287 N 
ATOM      3  C   UNL     1     101.287 119.828 112.835  1.00  0.00     0.091 C 
ATOM      4  C   UNL     1     100.752 119.575 111.404  1.00  0.00    -0.026 C 
ATOM      5  C   UNL     1     100.383 119.142 113.920  1.00  0.00     0.061 C 
ATOM      6  C   UNL     1     102.851 118.420 110.721  1.00  0.00     0.116 C 
ATOM      7  C   UNL     1     103.141 118.327 112.240  1.00  0.00     0.102 C 
ATOM      8  C   UNL     1      98.948 119.472 113.648  1.00  0.00    -0.019 A 
ATOM      9  C   UNL     1      99.334 119.940 111.186  1.00  0.00    -0.011 A 
ATOM     10  C   UNL     1      98.543 119.840 112.348  1.00  0.00     0.011 A 
ATOM     11  C   UNL     1     101.476 118.962 110.450  1.00  0.00    -0.007 C 
ATOM     12  C   UNL     1      97.175 120.113 112.351  1.00  0.00     0.056 A 
ATOM     13  C   UNL     1      97.831 119.514 114.436  1.00  0.00     0.099 A 
ATOM     14  C   UNL     1     103.587 120.631 112.861  1.00  0.00     0.106 C 
ATOM     15  C   UNL     1      98.723 120.330 109.997  1.00  0.00     0.009 A 
ATOM     16  C   UNL     1      96.566 120.510 111.143  1.00  0.00     0.027 A 
ATOM     17  C   UNL     1      97.357 120.614 109.984  1.00  0.00     0.003 A 
ENDROOT
BRANCH   6  18
ATOM     18  C   UNL     1     104.056 119.002 109.936  1.00  0.00     0.230 C 
ATOM     19  O   UNL     1     104.490 120.129 110.195  1.00  0.00    -0.274 OA
ATOM     20  N   UNL     1     104.766 118.131 109.094  1.00  0.00    -0.343 N 
BRANCH  20  21
ATOM     21  C   UNL     1     104.126 117.751 107.827  1.00  0.00     0.116 C 
ATOM     22  C   UNL     1     103.705 116.286 107.762  1.00  0.00     0.027 C 
ENDBRANCH  20  21
BRANCH  20  23
ATOM     23  C   UNL     1     106.213 118.366 109.054  1.00  0.00     0.116 C 
ATOM     24  C   UNL     1     106.951 117.871 110.288  1.00  0.00     0.027 C 
ENDBRANCH  20  23
ENDBRANCH   6  18
BRANCH   2  25
ATOM     25  C   UNL     1      95.433 120.021 114.238  1.00  0.00     0.230 C 
ATOM     26  O   UNL     1      94.645 119.087 114.113  1.00  0.00    -0.274 OA
BRANCH  25  27
ATOM     27  C   UNL     1      95.116 121.299 114.962  1.00  0.00     0.097 C 
ATOM     28  C   UNL     1      95.387 122.521 114.096  1.00  0.00     0.014 C 
ENDBRANCH  25  27
ENDBRANCH   2  25
TORSDOF 5
ENDMDL
MODEL 7
REMARK VINA RESULT:    -7.893      3.963      5.870
REMARK INTER + INTRA:         -10.589
REMARK INTER:                 -10.064
REMARK INTRA:                  -0.526
REMARK UNBOUND:                -0.389
REMARK SMILES CCC(=O)n1cc2c3c(cccc31)C1=C[C@@H](C(=O)N(CC)CC)CN(C)[C@@H]1C2
REMARK SMILES IDX 25 1 5 2 27 3 14 4 28 5 16 6 24 7 7 8 9 9 8 10 15 11 13 12
REMARK SMILES IDX 6 13 26 14 10 15 12 16 11 17 17 18 18 19 19 20 20 21 21 22
REMARK SMILES IDX 22 23 23 24 3 25 4 26 2 27 1 28
REMARK H PARENT
ROOT
ATOM      1  N   UNL     1      98.276 122.363 114.356  1.00  0.00    -0.298 NA
ATOM      2  N   UNL     1     103.281 120.497 111.556  1.00  0.00    -0.287 N 
ATOM      3  C   UNL     1      99.376 121.514 113.845  1.00  0.00     0.091 C 
ATOM      4  C   UNL     1      98.941 120.204 113.146  1.00  0.00    -0.026 C 
ATOM      5  C   UNL     1     100.342 122.360 112.940  1.00  0.00     0.061 C 
ATOM      6  C   UNL     1      96.536 120.850 113.226  1.00  0.00     0.116 C 
ATOM      7  C   UNL     1      97.063 122.277 113.519  1.00  0.00     0.102 C 
ATOM      8  C   UNL     1     101.418 121.471 112.400  1.00  0.00    -0.019 A 
ATOM      9  C   UNL     1     100.047 119.353 112.651  1.00  0.00    -0.011 A 
ATOM     10  C   UNL     1     101.203 120.081 112.303  1.00  0.00     0.011 A 
ATOM     11  C   UNL     1      97.654 119.902 112.894  1.00  0.00    -0.007 C 
ATOM     12  C   UNL     1     102.348 119.470 111.791  1.00  0.00     0.056 A 
ATOM     13  C   UNL     1     102.685 121.706 111.942  1.00  0.00     0.099 A 
ATOM     14  C   UNL     1      97.978 122.080 115.759  1.00  0.00     0.106 C 
ATOM     15  C   UNL     1     100.053 117.972 112.478  1.00  0.00     0.009 A 
ATOM     16  C   UNL     1     102.345 118.070 111.622  1.00  0.00     0.027 A 
ATOM     17  C   UNL     1     101.192 117.344 111.973  1.00  0.00     0.003 A 
ENDROOT
BRANCH   6  18
ATOM     18  C   UNL     1      95.457 120.410 114.250  1.00  0.00     0.230 C 
ATOM     19  O   UNL     1      94.556 121.184 114.588  1.00  0.00    -0.274 OA
ATOM     20  N   UNL     1      95.409 119.050 114.600  1.00  0.00    -0.343 N 
BRANCH  20  21
ATOM     21  C   UNL     1      96.461 118.548 115.495  1.00  0.00     0.116 C 
ATOM     22  C   UNL     1      96.426 119.158 116.892  1.00  0.00     0.027 C 
ENDBRANCH  20  21
BRANCH  20  23
ATOM     23  C   UNL     1      94.057 118.524 114.815  1.00  0.00     0.116 C 
ATOM     24  C   UNL     1      94.026 117.075 115.276  1.00  0.00     0.027 C 
ENDBRANCH  20  23
ENDBRANCH   6  18
BRANCH   2  25
ATOM     25  C   UNL     1     104.599 120.454 111.038  1.00  0.00     0.230 C 
ATOM     26  O   UNL     1     105.494 121.024 111.656  1.00  0.00    -0.274 OA
BRANCH  25  27
ATOM     27  C   UNL     1     104.808 119.705 109.751  1.00  0.00     0.097 C 
ATOM     28  C   UNL     1     106.113 118.921 109.760  1.00  0.00     0.014 C 
ENDBRANCH  25  27
ENDBRANCH   2  25
TORSDOF 5
ENDMDL
MODEL 8
REMARK VINA RESULT:    -7.879      2.883      4.661
REMARK INTER + INTRA:         -10.571
REMARK INTER:                  -9.793
REMARK INTRA:                  -0.778
REMARK UNBOUND:                -0.389
REMARK SMILES CCC(=O)n1cc2c3c(cccc31)C1=C[C@@H](C(=O)N(CC)CC)CN(C)[C@@H]1C2
REMARK SMILES IDX 25 1 5 2 27 3 14 4 28 5 16 6 24 7 7 8 9 9 8 10 15 11 13 12
REMARK SMILES IDX 6 13 26 14 10 15 12 16 11 17 17 18 18 19 19 20 20 21 21 22
REMARK SMILES IDX 22 23 23 24 3 25 4 26 2 27 1 28
REMARK H PARENT
ROOT
ATOM      1  N   UNL     1      98.792 118.939 112.192  1.00  0.00    -0.298 NA
ATOM      2  N   UNL     1     104.413 118.049 110.197  1.00  0.00    -0.287 N 
ATOM      3  C   UNL     1     100.170 119.168 111.701  1.00  0.00     0.091 C 
ATOM      4  C   UNL     1     101.017 120.166 112.528  1.00  0.00    -0.026 C 
ATOM      5  C   UNL     1     100.914 117.799 111.508  1.00  0.00     0.061 C 
ATOM      6  C   UNL     1      99.274 120.318 114.303  1.00  0.00     0.116 C 
ATOM      7  C   UNL     1      98.694 119.034 113.661  1.00  0.00     0.102 C 
ATOM      8  C   UNL     1     102.318 118.059 111.056  1.00  0.00    -0.019 A 
ATOM      9  C   UNL     1     102.388 120.402 112.023  1.00  0.00    -0.011 A 
ATOM     10  C   UNL     1     102.929 119.299 111.332  1.00  0.00     0.011 A 
ATOM     11  C   UNL     1     100.593 120.699 113.689  1.00  0.00    -0.007 C 
ATOM     12  C   UNL     1     104.220 119.307 110.800  1.00  0.00     0.056 A 
ATOM     13  C   UNL     1     103.233 117.313 110.367  1.00  0.00     0.099 A 
ATOM     14  C   UNL     1      97.828 119.820 111.534  1.00  0.00     0.106 C 
ATOM     15  C   UNL     1     103.174 121.541 112.177  1.00  0.00     0.009 A 
ATOM     16  C   UNL     1     105.005 120.466 110.959  1.00  0.00     0.027 A 
ATOM     17  C   UNL     1     104.463 121.568 111.646  1.00  0.00     0.003 A 
ENDROOT
BRANCH   6  18
ATOM     18  C   UNL     1      98.191 121.412 114.494  1.00  0.00     0.230 C 
ATOM     19  O   UNL     1      98.453 122.600 114.285  1.00  0.00    -0.274 OA
ATOM     20  N   UNL     1      96.866 120.988 114.688  1.00  0.00    -0.343 N 
BRANCH  20  21
ATOM     21  C   UNL     1      96.526 120.424 116.002  1.00  0.00     0.116 C 
ATOM     22  C   UNL     1      95.828 119.070 115.931  1.00  0.00     0.027 C 
ENDBRANCH  20  21
BRANCH  20  23
ATOM     23  C   UNL     1      95.855 121.843 114.058  1.00  0.00     0.116 C 
ATOM     24  C   UNL     1      94.994 122.612 115.048  1.00  0.00     0.027 C 
ENDBRANCH  20  23
ENDBRANCH   6  18
BRANCH   2  25
ATOM     25  C   UNL     1     105.532 117.509 109.516  1.00  0.00     0.230 C 
ATOM     26  O   UNL     1     105.601 117.642 108.297  1.00  0.00    -0.274 OA
BRANCH  25  27
ATOM     27  C   UNL     1     106.567 116.801 110.346  1.00  0.00     0.097 C 
ATOM     28  C   UNL     1     106.311 115.301 110.408  1.00  0.00     0.014 C 
ENDBRANCH  25  27
ENDBRANCH   2  25
TORSDOF 5
ENDMDL
MODEL 9
REMARK VINA RESULT:    -7.679      2.297      8.196
REMARK INTER + INTRA:         -10.312
REMARK INTER:                 -10.318
REMARK INTRA:                   0.006
REMARK UNBOUND:                -0.389
REMARK SMILES CCC(=O)n1cc2c3c(cccc31)C1=C[C@@H](C(=O)N(CC)CC)CN(C)[C@@H]1C2
REMARK SMILES IDX 25 1 5 2 27 3 14 4 28 5 16 6 24 7 7 8 9 9 8 10 15 11 13 12
REMARK SMILES IDX 6 13 26 14 10 15 12 16 11 17 17 18 18 19 19 20 20 21 21 22
REMARK SMILES IDX 22 23 23 24 3 25 4 26 2 27 1 28
REMARK H PARENT
ROOT
ATOM      1  N   UNL     1     106.036 118.739 109.657  1.00  0.00    -0.298 NA
ATOM      2  N   UNL     1     101.789 121.798 112.651  1.00  0.00    -0.287 N 
ATOM      3  C   UNL     1     104.730 119.193 110.185  1.00  0.00     0.091 C 
ATOM      4  C   UNL     1     103.826 118.085 110.778  1.00  0.00    -0.026 C 
ATOM      5  C   UNL     1     104.934 120.377 111.197  1.00  0.00     0.061 C 
ATOM      6  C   UNL     1     105.633 116.379 110.584  1.00  0.00     0.116 C 
ATOM      7  C   UNL     1     106.580 117.592 110.409  1.00  0.00     0.102 C 
ATOM      8  C   UNL     1     103.604 120.787 111.750  1.00  0.00    -0.019 A 
ATOM      9  C   UNL     1     102.516 118.544 111.290  1.00  0.00    -0.011 A 
ATOM     10  C   UNL     1     102.529 119.876 111.752  1.00  0.00     0.011 A 
ATOM     11  C   UNL     1     104.235 116.811 110.930  1.00  0.00    -0.007 C 
ATOM     12  C   UNL     1     101.402 120.491 112.299  1.00  0.00     0.056 A 
ATOM     13  C   UNL     1     103.137 121.949 112.300  1.00  0.00     0.099 A 
ATOM     14  C   UNL     1     105.974 118.457 108.224  1.00  0.00     0.106 C 
ATOM     15  C   UNL     1     101.331 117.819 111.383  1.00  0.00     0.009 A 
ATOM     16  C   UNL     1     100.206 119.749 112.385  1.00  0.00     0.027 A 
ATOM     17  C   UNL     1     100.193 118.421 111.921  1.00  0.00     0.003 A 
ENDROOT
BRANCH   6  18
ATOM     18  C   UNL     1     105.836 115.318 109.470  1.00  0.00     0.230 C 
ATOM     19  O   UNL     1     106.831 114.587 109.472  1.00  0.00    -0.274 OA
ATOM     20  N   UNL     1     104.758 115.069 108.605  1.00  0.00    -0.343 N 
BRANCH  20  21
ATOM     21  C   UNL     1     104.468 116.085 107.583  1.00  0.00     0.116 C 
ATOM     22  C   UNL     1     103.018 116.556 107.575  1.00  0.00     0.027 C 
ENDBRANCH  20  21
BRANCH  20  23
ATOM     23  C   UNL     1     104.616 113.668 108.198  1.00  0.00     0.116 C 
ATOM     24  C   UNL     1     104.807 113.437 106.707  1.00  0.00     0.027 C 
ENDBRANCH  20  23
ENDBRANCH   6  18
BRANCH   2  25
ATOM     25  C   UNL     1     101.056 122.854 113.248  1.00  0.00     0.230 C 
ATOM     26  O   UNL     1     101.613 123.936 113.415  1.00  0.00    -0.274 OA
BRANCH  25  27
ATOM     27  C   UNL     1      99.634 122.569 113.641  1.00  0.00     0.097 C 
ATOM     28  C   UNL     1      99.322 123.076 115.042  1.00  0.00     0.014 C 
ENDBRANCH  25  27
ENDBRANCH   2  25
TORSDOF 5
ENDMDL
MODEL 10
REMARK VINA RESULT:    -7.631      1.489      7.847
REMARK INTER + INTRA:         -10.250
REMARK INTER:                  -9.504
REMARK INTRA:                  -0.745
REMARK UNBOUND:                -0.389
REMARK SMILES CCC(=O)n1cc2c3c(cccc31)C1=C[C@@H](C(=O)N(CC)CC)CN(C)[C@@H]1C2
REMARK SMILES IDX 25 1 5 2 27 3 14 4 28 5 16 6 24 7 7 8 9 9 8 10 15 11 13 12
REMARK SMILES IDX 6 13 26 14 10 15 12 16 11 17 17 18 18 19 19 20 20 21 21 22
REMARK SMILES IDX 22 23 23 24 3 25 4 26 2 27 1 28
REMARK H PARENT
ROOT
ATOM      1  N   UNL     1     104.323 117.768 108.880  1.00  0.00    -0.298 NA
ATOM      2  N   UNL     1     100.577 119.466 113.290  1.00  0.00    -0.287 N 
ATOM      3  C   UNL     1     103.154 117.859 109.784  1.00  0.00     0.091 C 
ATOM      4  C   UNL     1     102.679 116.520 110.400  1.00  0.00    -0.026 C 
ATOM      5  C   UNL     1     103.403 118.948 110.888  1.00  0.00     0.061 C 
ATOM      6  C   UNL     1     104.650 115.296 109.491  1.00  0.00     0.116 C 
ATOM      7  C   UNL     1     105.263 116.702 109.280  1.00  0.00     0.102 C 
ATOM      8  C   UNL     1     102.227 118.989 111.814  1.00  0.00    -0.019 A 
ATOM      9  C   UNL     1     101.501 116.617 111.291  1.00  0.00    -0.011 A 
ATOM     10  C   UNL     1     101.388 117.863 111.940  1.00  0.00     0.011 A 
ATOM     11  C   UNL     1     103.348 115.364 110.240  1.00  0.00    -0.007 C 
ATOM     12  C   UNL     1     100.363 118.149 112.843  1.00  0.00     0.056 A 
ATOM     13  C   UNL     1     101.720 119.953 112.642  1.00  0.00     0.099 A 
ATOM     14  C   UNL     1     103.919 117.628 107.482  1.00  0.00     0.106 C 
ATOM     15  C   UNL     1     100.548 115.638 111.560  1.00  0.00     0.009 A 
ATOM     16  C   UNL     1      99.402 117.152 113.106  1.00  0.00     0.027 A 
ATOM     17  C   UNL     1      99.513 115.909 112.455  1.00  0.00     0.003 A 
ENDROOT
BRANCH   6  18
ATOM     18  C   UNL     1     104.733 114.428 108.208  1.00  0.00     0.230 C 
ATOM     19  O   UNL     1     105.818 114.223 107.656  1.00  0.00    -0.274 OA
ATOM     20  N   UNL     1     103.585 113.711 107.832  1.00  0.00    -0.343 N 
BRANCH  20  21
ATOM     21  C   UNL     1     102.477 114.476 107.242  1.00  0.00     0.116 C 
ATOM     22  C   UNL     1     101.103 113.865 107.491  1.00  0.00     0.027 C 
ENDBRANCH  20  21
BRANCH  20  23
ATOM     23  C   UNL     1     103.854 112.391 107.253  1.00  0.00     0.116 C 
ATOM     24  C   UNL     1     103.603 112.313 105.755  1.00  0.00     0.027 C 
ENDBRANCH  20  23
ENDBRANCH   6  18
BRANCH   2  25
ATOM     25  C   UNL     1      99.853 120.263 114.212  1.00  0.00     0.230 C 
ATOM     26  O   UNL     1      99.885 119.962 115.402  1.00  0.00    -0.274 OA
BRANCH  25  27
ATOM     27  C   UNL     1      99.086 121.431 113.658  1.00  0.00     0.097 C 
ATOM     28  C   UNL     1      98.160 121.013 112.525  1.00  0.00     0.014 C 
ENDBRANCH  25  27
ENDBRANCH   2  25
TORSDOF 5
ENDMDL
MODEL 11
REMARK VINA RESULT:    -7.566      1.405      1.808
REMARK INTER + INTRA:         -10.167
REMARK INTER:                  -9.153
REMARK INTRA:                  -1.014
REMARK UNBOUND:                -0.389
REMARK SMILES CCC(=O)n1cc2c3c(cccc31)C1=C[C@@H](C(=O)N(CC)CC)CN(C)[C@@H]1C2
REMARK SMILES IDX 25 1 5 2 27 3 14 4 28 5 16 6 24 7 7 8 9 9 8 10 15 11 13 12
REMARK SMILES IDX 6 13 26 14 10 15 12 16 11 17 17 18 18 19 19 20 20 21 21 22
REMARK SMILES IDX 22 23 23 24 3 25 4 26 2 27 1 28
REMARK H PARENT
ROOT
ATOM      1  N   UNL     1     101.512 119.435 113.357  1.00  0.00    -0.298 NA
ATOM      2  N   UNL     1     104.170 115.592 109.545  1.00  0.00    -0.287 N 
ATOM      3  C   UNL     1     101.926 118.197 112.659  1.00  0.00     0.091 C 
ATOM      4  C   UNL     1     100.774 117.263 112.215  1.00  0.00    -0.026 C 
ATOM      5  C   UNL     1     102.886 118.540 111.464  1.00  0.00     0.061 C 
ATOM      6  C   UNL     1      99.044 118.939 112.852  1.00  0.00     0.116 C 
ATOM      7  C   UNL     1     100.217 119.950 112.871  1.00  0.00     0.102 C 
ATOM      8  C   UNL     1     103.253 117.278 110.748  1.00  0.00    -0.019 A 
ATOM      9  C   UNL     1     101.197 116.020 111.531  1.00  0.00    -0.011 A 
ATOM     10  C   UNL     1     102.415 116.148 110.834  1.00  0.00     0.011 A 
ATOM     11  C   UNL     1      99.476 117.596 112.330  1.00  0.00    -0.007 C 
ATOM     12  C   UNL     1     102.975 115.100 110.102  1.00  0.00     0.056 A 
ATOM     13  C   UNL     1     104.314 116.923 109.961  1.00  0.00     0.099 A 
ATOM     14  C   UNL     1     101.508 119.265 114.809  1.00  0.00     0.106 C 
ATOM     15  C   UNL     1     100.530 114.798 111.486  1.00  0.00     0.009 A 
ATOM     16  C   UNL     1     102.293 113.866 110.065  1.00  0.00     0.027 A 
ATOM     17  C   UNL     1     101.078 113.738 110.763  1.00  0.00     0.003 A 
ENDROOT
BRANCH   6  18
ATOM     18  C   UNL     1      98.202 119.002 114.154  1.00  0.00     0.230 C 
ATOM     19  O   UNL     1      98.201 118.057 114.949  1.00  0.00    -0.274 OA
ATOM     20  N   UNL     1      97.633 120.239 114.501  1.00  0.00    -0.343 N 
BRANCH  20  21
ATOM     21  C   UNL     1      96.466 120.682 113.727  1.00  0.00     0.116 C 
ATOM     22  C   UNL     1      95.138 120.144 114.248  1.00  0.00     0.027 C 
ENDBRANCH  20  21
BRANCH  20  23
ATOM     23  C   UNL     1      97.611 120.516 115.941  1.00  0.00     0.116 C 
ATOM     24  C   UNL     1      98.810 121.311 116.434  1.00  0.00     0.027 C 
ENDBRANCH  20  23
ENDBRANCH   6  18
BRANCH   2  25
ATOM     25  C   UNL     1     105.132 114.969 108.711  1.00  0.00     0.230 C 
ATOM     26  O   UNL     1     106.246 114.733 109.172  1.00  0.00    -0.274 OA
BRANCH  25  27
ATOM     27  C   UNL     1     104.714 114.639 107.305  1.00  0.00     0.097 C 
ATOM     28  C   UNL     1     104.370 113.164 107.150  1.00  0.00     0.014 C 
ENDBRANCH  25  27
ENDBRANCH   2  25
TORSDOF 5
ENDMDL
MODEL 12
REMARK VINA RESULT:    -7.467      4.916      7.421
REMARK INTER + INTRA:         -10.038
REMARK INTER:                  -9.202
REMARK INTRA:                  -0.836
REMARK UNBOUND:                -0.389
REMARK SMILES CCC(=O)n1cc2c3c(cccc31)C1=C[C@@H](C(=O)N(CC)CC)CN(C)[C@@H]1C2
REMARK SMILES IDX 25 1 5 2 27 3 14 4 28 5 16 6 24 7 7 8 9 9 8 10 15 11 13 12
REMARK SMILES IDX 6 13 26 14 10 15 12 16 11 17 17 18 18 19 19 20 20 21 21 22
REMARK SMILES IDX 22 23 23 24 3 25 4 26 2 27 1 28
REMARK H PARENT
ROOT
ATOM      1  N   UNL     1      97.536 117.446 116.510  1.00  0.00    -0.298 NA
ATOM      2  N   UNL     1     101.492 119.720 112.567  1.00  0.00    -0.287 N 
ATOM      3  C   UNL     1      98.150 117.981 115.273  1.00  0.00     0.091 C 
ATOM      4  C   UNL     1      97.361 119.112 114.571  1.00  0.00    -0.026 C 
ATOM      5  C   UNL     1      99.641 118.395 115.541  1.00  0.00     0.061 C 
ATOM      6  C   UNL     1      95.738 119.278 116.455  1.00  0.00     0.116 C 
ATOM      7  C   UNL     1      96.790 118.475 117.260  1.00  0.00     0.102 C 
ATOM      8  C   UNL     1     100.224 118.974 114.289  1.00  0.00    -0.019 A 
ATOM      9  C   UNL     1      97.973 119.632 113.327  1.00  0.00    -0.011 A 
ATOM     10  C   UNL     1      99.378 119.526 113.306  1.00  0.00     0.011 A 
ATOM     11  C   UNL     1      96.258 119.674 115.100  1.00  0.00    -0.007 C 
ATOM     12  C   UNL     1     100.149 119.983 112.236  1.00  0.00     0.056 A 
ATOM     13  C   UNL     1     101.504 119.101 113.824  1.00  0.00     0.099 A 
ATOM     14  C   UNL     1      96.705 116.274 116.240  1.00  0.00     0.106 C 
ATOM     15  C   UNL     1      97.333 120.213 112.235  1.00  0.00     0.009 A 
ATOM     16  C   UNL     1      99.491 120.566 111.134  1.00  0.00     0.027 A 
ATOM     17  C   UNL     1      98.088 120.668 111.154  1.00  0.00     0.003 A 
ENDROOT
BRANCH   6  18
ATOM     18  C   UNL     1      94.323 118.651 116.561  1.00  0.00     0.230 C 
ATOM     19  O   UNL     1      93.640 118.464 115.550  1.00  0.00    -0.274 OA
ATOM     20  N   UNL     1      93.946 118.103 117.799  1.00  0.00    -0.343 N 
BRANCH  20  21
ATOM     21  C   UNL     1      93.608 119.045 118.875  1.00  0.00     0.116 C 
ATOM     22  C   UNL     1      92.771 120.233 118.416  1.00  0.00     0.027 C 
ENDBRANCH  20  21
BRANCH  20  23
ATOM     23  C   UNL     1      93.126 116.891 117.703  1.00  0.00     0.116 C 
ATOM     24  C   UNL     1      92.336 116.581 118.965  1.00  0.00     0.027 C 
ENDBRANCH  20  23
ENDBRANCH   6  18
BRANCH   2  25
ATOM     25  C   UNL     1     102.691 119.979 111.857  1.00  0.00     0.230 C 
ATOM     26  O   UNL     1     103.178 119.079 111.177  1.00  0.00    -0.274 OA
BRANCH  25  27
ATOM     27  C   UNL     1     103.288 121.351 111.991  1.00  0.00     0.097 C 
ATOM     28  C   UNL     1     104.782 121.349 111.697  1.00  0.00     0.014 C 
ENDBRANCH  25  27
ENDBRANCH   2  25
TORSDOF 5
ENDMDL
MODEL 13
REMARK VINA RESULT:    -7.456      3.397      9.917
REMARK INTER + INTRA:         -10.024
REMARK INTER:                  -9.059
REMARK INTRA:                  -0.964
REMARK UNBOUND:                -0.389
REMARK SMILES CCC(=O)n1cc2c3c(cccc31)C1=C[C@@H](C(=O)N(CC)CC)CN(C)[C@@H]1C2
REMARK SMILES IDX 25 1 5 2 27 3 14 4 28 5 16 6 24 7 7 8 9 9 8 10 15 11 13 12
REMARK SMILES IDX 6 13 26 14 10 15 12 16 11 17 17 18 18 19 19 20 20 21 21 22
REMARK SMILES IDX 22 23 23 24 3 25 4 26 2 27 1 28
REMARK H PARENT
ROOT
ATOM      1  N   UNL     1      99.167 118.899 112.130  1.00  0.00    -0.298 NA
ATOM      2  N   UNL     1      95.017 122.321 114.858  1.00  0.00    -0.287 N 
ATOM      3  C   UNL     1      98.459 119.740 113.122  1.00  0.00     0.091 C 
ATOM      4  C   UNL     1      99.278 120.916 113.707  1.00  0.00    -0.026 C 
ATOM      5  C   UNL     1      97.083 120.226 112.540  1.00  0.00     0.061 C 
ATOM      6  C   UNL     1     101.155 120.525 112.115  1.00  0.00     0.116 C 
ATOM      7  C   UNL     1     100.133 119.671 111.324  1.00  0.00     0.102 C 
ATOM      8  C   UNL     1      96.409 121.110 113.543  1.00  0.00    -0.019 A 
ATOM      9  C   UNL     1      98.569 121.744 114.709  1.00  0.00    -0.011 A 
ATOM     10  C   UNL     1      97.172 121.777 114.523  1.00  0.00     0.011 A 
ATOM     11  C   UNL     1     100.505 121.246 113.263  1.00  0.00    -0.007 C 
ATOM     12  C   UNL     1      96.323 122.521 115.343  1.00  0.00     0.056 A 
ATOM     13  C   UNL     1      95.103 121.452 113.761  1.00  0.00     0.099 A 
ATOM     14  C   UNL     1      99.799 117.739 112.755  1.00  0.00     0.106 C 
ATOM     15  C   UNL     1      99.119 122.481 115.754  1.00  0.00     0.009 A 
ATOM     16  C   UNL     1      96.889 123.261 116.401  1.00  0.00     0.027 A 
ATOM     17  C   UNL     1      98.283 123.225 116.588  1.00  0.00     0.003 A 
ENDROOT
BRANCH   6  18
ATOM     18  C   UNL     1     102.481 119.759 112.364  1.00  0.00     0.230 C 
ATOM     19  O   UNL     1     102.676 119.168 113.430  1.00  0.00    -0.274 OA
ATOM     20  N   UNL     1     103.340 119.574 111.268  1.00  0.00    -0.343 N 
BRANCH  20  21
ATOM     21  C   UNL     1     104.103 120.742 110.807  1.00  0.00     0.116 C 
ATOM     22  C   UNL     1     104.751 121.541 111.934  1.00  0.00     0.027 C 
ENDBRANCH  20  21
BRANCH  20  23
ATOM     23  C   UNL     1     104.040 118.285 111.254  1.00  0.00     0.116 C 
ATOM     24  C   UNL     1     103.266 117.172 110.566  1.00  0.00     0.027 C 
ENDBRANCH  20  23
ENDBRANCH   6  18
BRANCH   2  25
ATOM     25  C   UNL     1      93.773 122.835 115.300  1.00  0.00     0.230 C 
ATOM     26  O   UNL     1      93.504 124.010 115.062  1.00  0.00    -0.274 OA
BRANCH  25  27
ATOM     27  C   UNL     1      92.863 121.895 116.038  1.00  0.00     0.097 C 
ATOM     28  C   UNL     1      93.566 121.238 117.218  1.00  0.00     0.014 C 
ENDBRANCH  25  27
ENDBRANCH   2  25
TORSDOF 5
ENDMDL
MODEL 14
REMARK VINA RESULT:    -7.415      3.193      4.869
REMARK INTER + INTRA:          -9.971
REMARK INTER:                  -9.290
REMARK INTRA:                  -0.681
REMARK UNBOUND:                -0.389
REMARK SMILES CCC(=O)n1cc2c3c(cccc31)C1=C[C@@H](C(=O)N(CC)CC)CN(C)[C@@H]1C2
REMARK SMILES IDX 25 1 5 2 27 3 14 4 28 5 16 6 24 7 7 8 9 9 8 10 15 11 13 12
REMARK SMILES IDX 6 13 26 14 10 15 12 16 11 17 17 18 18 19 19 20 20 21 21 22
REMARK SMILES IDX 22 23 23 24 3 25 4 26 2 27 1 28
REMARK H PARENT
ROOT
ATOM      1  N   UNL     1      99.263 121.674 114.381  1.00  0.00    -0.298 NA
ATOM      2  N   UNL     1     103.905 119.769 111.037  1.00  0.00    -0.287 N 
ATOM      3  C   UNL     1     100.272 120.811 113.725  1.00  0.00     0.091 C 
ATOM      4  C   UNL     1      99.713 119.566 112.996  1.00  0.00    -0.026 C 
ATOM      5  C   UNL     1     101.193 121.669 112.785  1.00  0.00     0.061 C 
ATOM      6  C   UNL     1      97.359 120.309 113.331  1.00  0.00     0.116 C 
ATOM      7  C   UNL     1      97.978 121.691 113.655  1.00  0.00     0.102 C 
ATOM      8  C   UNL     1     102.173 120.768 112.101  1.00  0.00    -0.019 A 
ATOM      9  C   UNL     1     100.729 118.700 112.355  1.00  0.00    -0.011 A 
ATOM     10  C   UNL     1     101.883 119.397 111.945  1.00  0.00     0.011 A 
ATOM     11  C   UNL     1      98.396 119.335 112.845  1.00  0.00    -0.007 C 
ATOM     12  C   UNL     1     102.948 118.770 111.297  1.00  0.00     0.056 A 
ATOM     13  C   UNL     1     103.405 120.976 111.543  1.00  0.00     0.099 A 
ATOM     14  C   UNL     1      99.077 121.320 115.787  1.00  0.00     0.106 C 
ATOM     15  C   UNL     1     100.653 117.333 112.104  1.00  0.00     0.009 A 
ATOM     16  C   UNL     1     102.863 117.384 111.050  1.00  0.00     0.027 A 
ATOM     17  C   UNL     1     101.711 116.689 111.463  1.00  0.00     0.003 A 
ENDROOT
BRANCH   6  18
ATOM     18  C   UNL     1      96.354 119.854 114.423  1.00  0.00     0.230 C 
ATOM     19  O   UNL     1      96.291 118.669 114.764  1.00  0.00    -0.274 OA
ATOM     20  N   UNL     1      95.693 120.853 115.155  1.00  0.00    -0.343 N 
BRANCH  20  21
ATOM     21  C   UNL     1      94.617 121.586 114.474  1.00  0.00     0.116 C 
ATOM     22  C   UNL     1      94.635 123.089 114.731  1.00  0.00     0.027 C 
ENDBRANCH  20  21
BRANCH  20  23
ATOM     23  C   UNL     1      95.473 120.527 116.568  1.00  0.00     0.116 C 
ATOM     24  C   UNL     1      96.207 121.446 117.533  1.00  0.00     0.027 C 
ENDBRANCH  20  23
ENDBRANCH   6  18
BRANCH   2  25
ATOM     25  C   UNL     1     105.169 119.700 110.399  1.00  0.00     0.230 C 
ATOM     26  O   UNL     1     106.179 119.887 111.072  1.00  0.00    -0.274 OA
BRANCH  25  27
ATOM     27  C   UNL     1     105.181 119.401 108.926  1.00  0.00     0.097 C 
ATOM     28  C   UNL     1     105.582 117.960 108.645  1.00  0.00     0.014 C 
ENDBRANCH  25  27
ENDBRANCH   2  25
TORSDOF 5
ENDMDL
MODEL 15
REMARK VINA RESULT:    -7.405      4.708      8.878
REMARK INTER + INTRA:          -9.958
REMARK INTER:                  -9.232
REMARK INTRA:                  -0.726
REMARK UNBOUND:                -0.389
REMARK SMILES CCC(=O)n1cc2c3c(cccc31)C1=C[C@@H](C(=O)N(CC)CC)CN(C)[C@@H]1C2
REMARK SMILES IDX 25 1 5 2 27 3 14 4 28 5 16 6 24 7 7 8 9 9 8 10 15 11 13 12
REMARK SMILES IDX 6 13 26 14 10 15 12 16 11 17 17 18 18 19 19 20 20 21 21 22
REMARK SMILES IDX 22 23 23 24 3 25 4 26 2 27 1 28
REMARK H PARENT
ROOT
ATOM      1  N   UNL     1      97.067 120.947 112.388  1.00  0.00    -0.298 NA
ATOM      2  N   UNL     1      94.575 117.278 116.474  1.00  0.00    -0.287 N 
ATOM      3  C   UNL     1      96.824 119.809 113.304  1.00  0.00     0.091 C 
ATOM      4  C   UNL     1      98.006 119.433 114.230  1.00  0.00    -0.026 C 
ATOM      5  C   UNL     1      95.500 120.037 114.118  1.00  0.00     0.061 C 
ATOM      6  C   UNL     1      99.315 121.434 113.529  1.00  0.00     0.116 C 
ATOM      7  C   UNL     1      97.968 121.959 112.973  1.00  0.00     0.102 C 
ATOM      8  C   UNL     1      95.302 118.897 115.067  1.00  0.00    -0.019 A 
ATOM      9  C   UNL     1      97.761 118.285 115.132  1.00  0.00    -0.011 A 
ATOM     10  C   UNL     1      96.406 118.127 115.486  1.00  0.00     0.011 A 
ATOM     11  C   UNL     1      99.136 120.159 114.306  1.00  0.00    -0.007 C 
ATOM     12  C   UNL     1      95.968 117.122 116.349  1.00  0.00     0.056 A 
ATOM     13  C   UNL     1      94.198 118.367 115.677  1.00  0.00     0.099 A 
ATOM     14  C   UNL     1      97.543 120.500 111.080  1.00  0.00     0.106 C 
ATOM     15  C   UNL     1      98.695 117.400 115.664  1.00  0.00     0.009 A 
ATOM     16  C   UNL     1      96.921 116.228 116.879  1.00  0.00     0.027 A 
ATOM     17  C   UNL     1      98.273 116.385 116.523  1.00  0.00     0.003 A 
ENDROOT
BRANCH   6  18
ATOM     18  C   UNL     1     100.449 121.518 112.474  1.00  0.00     0.230 C 
ATOM     19  O   UNL     1     100.781 122.605 111.991  1.00  0.00    -0.274 OA
ATOM     20  N   UNL     1     101.224 120.366 112.260  1.00  0.00    -0.343 N 
BRANCH  20  21
ATOM     21  C   UNL     1     100.604 119.269 111.504  1.00  0.00     0.116 C 
ATOM     22  C   UNL     1     100.742 117.905 112.171  1.00  0.00     0.027 C 
ENDBRANCH  20  21
BRANCH  20  23
ATOM     23  C   UNL     1     102.643 120.628 111.995  1.00  0.00     0.116 C 
ATOM     24  C   UNL     1     103.591 119.745 112.790  1.00  0.00     0.027 C 
ENDBRANCH  20  23
ENDBRANCH   6  18
BRANCH   2  25
ATOM     25  C   UNL     1      93.622 116.545 117.225  1.00  0.00     0.230 C 
ATOM     26  O   UNL     1      92.998 117.125 118.110  1.00  0.00    -0.274 OA
BRANCH  25  27
ATOM     27  C   UNL     1      93.444 115.093 116.880  1.00  0.00     0.097 C 
ATOM     28  C   UNL     1      93.278 114.885 115.381  1.00  0.00     0.014 C 
ENDBRANCH  25  27
ENDBRANCH   2  25
TORSDOF 5
ENDMDL
MODEL 16
REMARK VINA RESULT:    -7.267      4.686      7.013
REMARK INTER + INTRA:          -9.780
REMARK INTER:                  -9.107
REMARK INTRA:                  -0.673
REMARK UNBOUND:                -0.389
REMARK SMILES CCC(=O)n1cc2c3c(cccc31)C1=C[C@@H](C(=O)N(CC)CC)CN(C)[C@@H]1C2
REMARK SMILES IDX 25 1 5 2 27 3 14 4 28 5 16 6 24 7 7 8 9 9 8 10 15 11 13 12
REMARK SMILES IDX 6 13 26 14 10 15 12 16 11 17 17 18 18 19 19 20 20 21 21 22
REMARK SMILES IDX 22 23 23 24 3 25 4 26 2 27 1 28
REMARK H PARENT
ROOT
ATOM      1  N   UNL     1      98.193 117.559 116.963  1.00  0.00    -0.298 NA
ATOM      2  N   UNL     1     101.634 119.515 112.413  1.00  0.00    -0.287 N 
ATOM      3  C   UNL     1      98.651 117.998 115.625  1.00  0.00     0.091 C 
ATOM      4  C   UNL     1      97.778 119.080 114.942  1.00  0.00    -0.026 C 
ATOM      5  C   UNL     1     100.162 118.423 115.678  1.00  0.00     0.061 C 
ATOM      6  C   UNL     1      96.396 119.392 116.991  1.00  0.00     0.116 C 
ATOM      7  C   UNL     1      97.540 118.645 117.720  1.00  0.00     0.102 C 
ATOM      8  C   UNL     1     100.587 118.905 114.327  1.00  0.00    -0.019 A 
ATOM      9  C   UNL     1      98.233 119.503 113.599  1.00  0.00    -0.011 A 
ATOM     10  C   UNL     1      99.626 119.388 113.415  1.00  0.00     0.011 A 
ATOM     11  C   UNL     1      96.746 119.684 115.558  1.00  0.00    -0.007 C 
ATOM     12  C   UNL     1     100.260 119.760 112.229  1.00  0.00     0.056 A 
ATOM     13  C   UNL     1     101.800 118.990 113.701  1.00  0.00     0.099 A 
ATOM     14  C   UNL     1      97.340 116.375 116.883  1.00  0.00     0.106 C 
ATOM     15  C   UNL     1      97.464 120.005 112.553  1.00  0.00     0.009 A 
ATOM     16  C   UNL     1      99.471 120.265 111.175  1.00  0.00     0.027 A 
ATOM     17  C   UNL     1      98.080 120.376 111.358  1.00  0.00     0.003 A 
ENDROOT
BRANCH   6  18
ATOM     18  C   UNL     1      95.006 118.782 117.314  1.00  0.00     0.230 C 
ATOM     19  O   UNL     1      94.622 118.675 118.483  1.00  0.00    -0.274 OA
ATOM     20  N   UNL     1      94.124 118.570 116.242  1.00  0.00    -0.343 N 
BRANCH  20  21
ATOM     21  C   UNL     1      94.412 117.439 115.349  1.00  0.00     0.116 C 
ATOM     22  C   UNL     1      93.172 116.664 114.915  1.00  0.00     0.027 C 
ENDBRANCH  20  21
BRANCH  20  23
ATOM     23  C   UNL     1      92.713 118.817 116.557  1.00  0.00     0.116 C 
ATOM     24  C   UNL     1      92.300 120.275 116.430  1.00  0.00     0.027 C 
ENDBRANCH  20  23
ENDBRANCH   6  18
BRANCH   2  25
ATOM     25  C   UNL     1     102.737 119.714 111.546  1.00  0.00     0.230 C 
ATOM     26  O   UNL     1     103.096 118.785 110.827  1.00  0.00    -0.274 OA
BRANCH  25  27
ATOM     27  C   UNL     1     103.397 121.064 111.570  1.00  0.00     0.097 C 
ATOM     28  C   UNL     1     104.784 121.003 112.194  1.00  0.00     0.014 C 
ENDBRANCH  25  27
ENDBRANCH   2  25
TORSDOF 5
ENDMDL
MODEL 17
REMARK VINA RESULT:    -7.204      2.327      4.014
REMARK INTER + INTRA:          -9.698
REMARK INTER:                  -8.961
REMARK INTRA:                  -0.737
REMARK UNBOUND:                -0.389
REMARK SMILES CCC(=O)n1cc2c3c(cccc31)C1=C[C@@H](C(=O)N(CC)CC)CN(C)[C@@H]1C2
REMARK SMILES IDX 25 1 5 2 27 3 14 4 28 5 16 6 24 7 7 8 9 9 8 10 15 11 13 12
REMARK SMILES IDX 6 13 26 14 10 15 12 16 11 17 17 18 18 19 19 20 20 21 21 22
REMARK SMILES IDX 22 23 23 24 3 25 4 26 2 27 1 28
REMARK H PARENT
ROOT
ATOM      1  N   UNL     1      98.997 118.101 112.805  1.00  0.00    -0.298 NA
ATOM      2  N   UNL     1     104.184 117.034 109.919  1.00  0.00    -0.287 N 
ATOM      3  C   UNL     1     100.323 118.277 112.171  1.00  0.00     0.091 C 
ATOM      4  C   UNL     1     101.380 119.019 113.026  1.00  0.00    -0.026 C 
ATOM      5  C   UNL     1     100.865 116.899 111.649  1.00  0.00     0.061 C 
ATOM      6  C   UNL     1      99.897 119.017 115.028  1.00  0.00     0.116 C 
ATOM      7  C   UNL     1      99.089 117.936 114.268  1.00  0.00     0.102 C 
ATOM      8  C   UNL     1     102.225 117.096 111.054  1.00  0.00    -0.019 A 
ATOM      9  C   UNL     1     102.699 119.204 112.380  1.00  0.00    -0.011 A 
ATOM     10  C   UNL     1     103.013 118.198 111.444  1.00  0.00     0.011 A 
ATOM     11  C   UNL     1     101.168 119.371 114.307  1.00  0.00    -0.007 C 
ATOM     12  C   UNL     1     104.220 118.174 110.745  1.00  0.00     0.056 A 
ATOM     13  C   UNL     1     102.952 116.400 110.128  1.00  0.00     0.099 A 
ATOM     14  C   UNL     1      98.076 119.178 112.446  1.00  0.00     0.106 C 
ATOM     15  C   UNL     1     103.631 120.213 112.610  1.00  0.00     0.009 A 
ATOM     16  C   UNL     1     105.156 119.201 110.984  1.00  0.00     0.027 A 
ATOM     17  C   UNL     1     104.840 120.207 111.915  1.00  0.00     0.003 A 
ENDROOT
BRANCH   6  18
ATOM     18  C   UNL     1      98.986 120.161 115.549  1.00  0.00     0.230 C 
ATOM     19  O   UNL     1      98.131 119.940 116.412  1.00  0.00    -0.274 OA
ATOM     20  N   UNL     1      99.316 121.475 115.178  1.00  0.00    -0.343 N 
BRANCH  20  21
ATOM     21  C   UNL     1      99.025 121.876 113.795  1.00  0.00     0.116 C 
ATOM     22  C   UNL     1     100.226 122.457 113.055  1.00  0.00     0.027 C 
ENDBRANCH  20  21
BRANCH  20  23
ATOM     23  C   UNL     1      99.074 122.480 116.219  1.00  0.00     0.116 C 
ATOM     24  C   UNL     1      97.910 123.410 115.918  1.00  0.00     0.027 C 
ENDBRANCH  20  23
ENDBRANCH   6  18
BRANCH   2  25
ATOM     25  C   UNL     1     105.138 116.518 109.007  1.00  0.00     0.230 C 
ATOM     26  O   UNL     1     105.422 117.182 108.014  1.00  0.00    -0.274 OA
BRANCH  25  27
ATOM     27  C   UNL     1     105.738 115.177 109.325  1.00  0.00     0.097 C 
ATOM     28  C   UNL     1     106.611 115.230 110.571  1.00  0.00     0.014 C 
ENDBRANCH  25  27
ENDBRANCH   2  25
TORSDOF 5
ENDMDL
MODEL 18
REMARK VINA RESULT:    -7.124      1.618      8.338
REMARK INTER + INTRA:          -9.596
REMARK INTER:                  -9.132
REMARK INTRA:                  -0.464
REMARK UNBOUND:                -0.389
REMARK SMILES CCC(=O)n1cc2c3c(cccc31)C1=C[C@@H](C(=O)N(CC)CC)CN(C)[C@@H]1C2
REMARK SMILES IDX 25 1 5 2 27 3 14 4 28 5 16 6 24 7 7 8 9 9 8 10 15 11 13 12
REMARK SMILES IDX 6 13 26 14 10 15 12 16 11 17 17 18 18 19 19 20 20 21 21 22
REMARK SMILES IDX 22 23 23 24 3 25 4 26 2 27 1 28
REMARK H PARENT
ROOT
ATOM      1  N   UNL     1     100.962 113.730 111.460  1.00  0.00    -0.298 NA
ATOM      2  N   UNL     1     100.093 119.360 113.439  1.00  0.00    -0.287 N 
ATOM      3  C   UNL     1     101.185 115.141 111.849  1.00  0.00     0.091 C 
ATOM      4  C   UNL     1     101.913 116.016 110.801  1.00  0.00    -0.026 C 
ATOM      5  C   UNL     1      99.835 115.797 112.314  1.00  0.00     0.061 C 
ATOM      6  C   UNL     1     101.813 114.211 109.086  1.00  0.00     0.116 C 
ATOM      7  C   UNL     1     100.745 113.573 110.009  1.00  0.00     0.102 C 
ATOM      8  C   UNL     1     100.078 117.234 112.658  1.00  0.00    -0.019 A 
ATOM      9  C   UNL     1     102.146 117.422 111.203  1.00  0.00    -0.011 A 
ATOM     10  C   UNL     1     101.180 117.916 112.102  1.00  0.00     0.011 A 
ATOM     11  C   UNL     1     102.216 115.579 109.565  1.00  0.00    -0.007 C 
ATOM     12  C   UNL     1     101.202 119.226 112.582  1.00  0.00     0.056 A 
ATOM     13  C   UNL     1      99.430 118.126 113.467  1.00  0.00     0.099 A 
ATOM     14  C   UNL     1     102.034 112.859 111.937  1.00  0.00     0.106 C 
ATOM     15  C   UNL     1     103.162 118.276 110.782  1.00  0.00     0.009 A 
ATOM     16  C   UNL     1     102.237 120.082 112.153  1.00  0.00     0.027 A 
ATOM     17  C   UNL     1     103.203 119.587 111.258  1.00  0.00     0.003 A 
ENDROOT
BRANCH   6  18
ATOM     18  C   UNL     1     102.920 113.198 108.693  1.00  0.00     0.230 C 
ATOM     19  O   UNL     1     102.804 112.000 108.970  1.00  0.00    -0.274 OA
ATOM     20  N   UNL     1     103.933 113.644 107.829  1.00  0.00    -0.343 N 
BRANCH  20  21
ATOM     21  C   UNL     1     104.954 114.538 108.393  1.00  0.00     0.116 C 
ATOM     22  C   UNL     1     105.023 115.903 107.716  1.00  0.00     0.027 C 
ENDBRANCH  20  21
BRANCH  20  23
ATOM     23  C   UNL     1     104.399 112.640 106.867  1.00  0.00     0.116 C 
ATOM     24  C   UNL     1     103.593 112.602 105.578  1.00  0.00     0.027 C 
ENDBRANCH  20  23
ENDBRANCH   6  18
BRANCH   2  25
ATOM     25  C   UNL     1      99.627 120.468 114.188  1.00  0.00     0.230 C 
ATOM     26  O   UNL     1      99.585 120.376 115.413  1.00  0.00    -0.274 OA
BRANCH  25  27
ATOM     27  C   UNL     1      99.210 121.692 113.421  1.00  0.00     0.097 C 
ATOM     28  C   UNL     1      98.149 121.369 112.377  1.00  0.00     0.014 C 
ENDBRANCH  25  27
ENDBRANCH   2  25
TORSDOF 5
ENDMDL
MODEL 19
REMARK VINA RESULT:    -7.036      3.835      9.594
REMARK INTER + INTRA:          -9.481
REMARK INTER:                  -8.527
REMARK INTRA:                  -0.954
REMARK UNBOUND:                -0.389
REMARK SMILES CCC(=O)n1cc2c3c(cccc31)C1=C[C@@H](C(=O)N(CC)CC)CN(C)[C@@H]1C2
REMARK SMILES IDX 25 1 5 2 27 3 14 4 28 5 16 6 24 7 7 8 9 9 8 10 15 11 13 12
REMARK SMILES IDX 6 13 26 14 10 15 12 16 11 17 17 18 18 19 19 20 20 21 21 22
REMARK SMILES IDX 22 23 23 24 3 25 4 26 2 27 1 28
REMARK H PARENT
ROOT
ATOM      1  N   UNL     1      99.402 120.819 111.486  1.00  0.00    -0.298 NA
ATOM      2  N   UNL     1      94.632 121.083 115.168  1.00  0.00    -0.287 N 
ATOM      3  C   UNL     1      98.317 120.446 112.423  1.00  0.00     0.091 C 
ATOM      4  C   UNL     1      98.752 119.609 113.650  1.00  0.00    -0.026 C 
ATOM      5  C   UNL     1      97.504 121.720 112.850  1.00  0.00     0.061 C 
ATOM      6  C   UNL     1     101.167 119.884 113.099  1.00  0.00     0.116 C 
ATOM      7  C   UNL     1     100.691 121.030 112.172  1.00  0.00     0.102 C 
ATOM      8  C   UNL     1      96.445 121.323 113.830  1.00  0.00    -0.019 A 
ATOM      9  C   UNL     1      97.661 119.227 114.574  1.00  0.00    -0.011 A 
ATOM     10  C   UNL     1      96.591 120.145 114.590  1.00  0.00     0.011 A 
ATOM     11  C   UNL     1     100.040 119.339 113.932  1.00  0.00    -0.007 C 
ATOM     12  C   UNL     1      95.476 119.984 115.413  1.00  0.00     0.056 A 
ATOM     13  C   UNL     1      95.250 121.880 114.194  1.00  0.00     0.099 A 
ATOM     14  C   UNL     1      99.529 119.857 110.393  1.00  0.00     0.106 C 
ATOM     15  C   UNL     1      97.597 118.116 115.411  1.00  0.00     0.009 A 
ATOM     16  C   UNL     1      95.419 118.853 116.254  1.00  0.00     0.027 A 
ATOM     17  C   UNL     1      96.486 117.936 116.235  1.00  0.00     0.003 A 
ENDROOT
BRANCH   6  18
ATOM     18  C   UNL     1     102.103 118.891 112.360  1.00  0.00     0.230 C 
ATOM     19  O   UNL     1     101.807 117.696 112.272  1.00  0.00    -0.274 OA
ATOM     20  N   UNL     1     103.164 119.430 111.614  1.00  0.00    -0.343 N 
BRANCH  20  21
ATOM     21  C   UNL     1     104.314 119.955 112.363  1.00  0.00     0.116 C 
ATOM     22  C   UNL     1     104.601 121.430 112.102  1.00  0.00     0.027 C 
ENDBRANCH  20  21
BRANCH  20  23
ATOM     23  C   UNL     1     103.461 118.711 110.372  1.00  0.00     0.116 C 
ATOM     24  C   UNL     1     104.892 118.205 110.280  1.00  0.00     0.027 C 
ENDBRANCH  20  23
ENDBRANCH   6  18
BRANCH   2  25
ATOM     25  C   UNL     1      93.378 121.434 115.726  1.00  0.00     0.230 C 
ATOM     26  O   UNL     1      92.480 120.595 115.730  1.00  0.00    -0.274 OA
BRANCH  25  27
ATOM     27  C   UNL     1      93.234 122.825 116.277  1.00  0.00     0.097 C 
ATOM     28  C   UNL     1      93.763 122.926 117.700  1.00  0.00     0.014 C 
ENDBRANCH  25  27
ENDBRANCH   2  25
TORSDOF 5
ENDMDL
