MODEL 1
REMARK VINA RESULT:    -9.947      0.000      0.000
REMARK INTER + INTRA:         -13.473
REMARK INTER:                 -12.855
REMARK INTRA:                  -0.618
REMARK UNBOUND:                -0.618
REMARK SMILES CCC(=O)n1cc2c3c(cccc31)C1=C[C@@H](C(=O)N(CC)CC)CN(C)[C@@H]1C2
REMARK SMILES IDX 25 1 5 2 27 3 14 4 28 5 16 6 24 7 7 8 9 9 8 10 15 11 13 12
REMARK SMILES IDX 6 13 26 14 10 15 12 16 11 17 17 18 18 19 19 20 20 21 21 22
REMARK SMILES IDX 22 23 23 24 3 25 4 26 2 27 1 28
REMARK H PARENT
ROOT
ATOM      1  N   UNL     1      19.584 -24.059  87.103  1.00  0.00    -0.298 NA
ATOM      2  N   UNL     1      15.246 -25.324  83.110  1.00  0.00    -0.287 N 
ATOM      3  C   UNL     1      18.863 -24.331  85.839  1.00  0.00     0.091 C 
ATOM      4  C   UNL     1      19.511 -25.389  84.914  1.00  0.00    -0.026 C 
ATOM      5  C   UNL     1      17.356 -24.663  86.132  1.00  0.00     0.061 C 
ATOM      6  C   UNL     1      21.206 -25.994  86.638  1.00  0.00     0.116 C 
ATOM      7  C   UNL     1      20.272 -25.255  87.628  1.00  0.00     0.102 C 
ATOM      8  C   UNL     1      16.661 -24.978  84.845  1.00  0.00    -0.019 A 
ATOM      9  C   UNL     1      18.793 -25.645  83.645  1.00  0.00    -0.011 A 
ATOM     10  C   UNL     1      17.403 -25.425  83.732  1.00  0.00     0.011 A 
ATOM     11  C   UNL     1      20.584 -26.117  85.274  1.00  0.00    -0.007 C 
ATOM     12  C   UNL     1      16.541 -25.635  82.655  1.00  0.00     0.056 A 
ATOM     13  C   UNL     1      15.353 -24.923  84.449  1.00  0.00     0.099 A 
ATOM     14  C   UNL     1      20.502 -22.929  86.973  1.00  0.00     0.106 C 
ATOM     15  C   UNL     1      19.322 -26.086  82.435  1.00  0.00     0.009 A 
ATOM     16  C   UNL     1      17.088 -26.078  81.433  1.00  0.00     0.027 A 
ATOM     17  C   UNL     1      18.475 -26.294  81.346  1.00  0.00     0.003 A 
ENDROOT
BRANCH   6  18
ATOM     18  C   UNL     1      22.675 -25.508  86.752  1.00  0.00     0.230 C 
ATOM     19  O   UNL     1      23.174 -24.801  85.871  1.00  0.00    -0.274 OA
ATOM     20  N   UNL     1      23.332 -25.707  87.977  1.00  0.00    -0.343 N 
BRANCH  20  21
ATOM     21  C   UNL     1      23.762 -27.076  88.296  1.00  0.00     0.116 C 
ATOM     22  C   UNL     1      25.215 -27.366  87.936  1.00  0.00     0.027 C 
ENDBRANCH  20  21
BRANCH  20  23
ATOM     23  C   UNL     1      24.245 -24.625  88.361  1.00  0.00     0.116 C 
ATOM     24  C   UNL     1      24.183 -24.260  89.836  1.00  0.00     0.027 C 
ENDBRANCH  20  23
ENDBRANCH   6  18
BRANCH   2  25
ATOM     25  C   UNL     1      13.994 -25.365  82.447  1.00  0.00     0.230 C 
ATOM     26  O   UNL     1      13.964 -25.171  81.234  1.00  0.00    -0.274 OA
BRANCH  25  27
ATOM     27  C   UNL     1      12.779 -25.642  83.287  1.00  0.00     0.097 C 
ATOM     28  C   UNL     1      12.029 -24.364  83.635  1.00  0.00     0.014 C 
ENDBRANCH  25  27
ENDBRANCH   2  25
TORSDOF 5
ENDMDL
MODEL 2
REMARK VINA RESULT:    -9.080      4.618      6.920
REMARK INTER + INTRA:         -12.352
REMARK INTER:                 -11.848
REMARK INTRA:                  -0.504
REMARK UNBOUND:                -0.618
REMARK SMILES CCC(=O)n1cc2c3c(cccc31)C1=C[C@@H](C(=O)N(CC)CC)CN(C)[C@@H]1C2
REMARK SMILES IDX 25 1 5 2 27 3 14 4 28 5 16 6 24 7 7 8 9 9 8 10 15 11 13 12
REMARK SMILES IDX 6 13 26 14 10 15 12 16 11 17 17 18 18 19 19 20 20 21 21 22
REMARK SMILES IDX 22 23 23 24 3 25 4 26 2 27 1 28
REMARK H PARENT
ROOT
ATOM      1  N   UNL     1      20.335 -24.954  87.565  1.00  0.00    -0.298 NA
ATOM      2  N   UNL     1      17.636 -28.324  91.775  1.00  0.00    -0.287 N 
ATOM      3  C   UNL     1      19.984 -26.074  88.467  1.00  0.00     0.091 C 
ATOM      4  C   UNL     1      21.164 -26.691  89.257  1.00  0.00    -0.026 C 
ATOM      5  C   UNL     1      18.805 -25.659  89.418  1.00  0.00     0.061 C 
ATOM      6  C   UNL     1      22.732 -24.916  88.484  1.00  0.00     0.116 C 
ATOM      7  C   UNL     1      21.452 -24.141  88.084  1.00  0.00     0.102 C 
ATOM      8  C   UNL     1      18.500 -26.791  90.348  1.00  0.00    -0.019 A 
ATOM      9  C   UNL     1      20.807 -27.821  90.145  1.00  0.00    -0.011 A 
ATOM     10  C   UNL     1      19.486 -27.759  90.630  1.00  0.00     0.011 A 
ATOM     11  C   UNL     1      22.406 -26.176  89.237  1.00  0.00    -0.007 C 
ATOM     12  C   UNL     1      18.961 -28.712  91.504  1.00  0.00     0.056 A 
ATOM     13  C   UNL     1      17.383 -27.150  91.052  1.00  0.00     0.099 A 
ATOM     14  C   UNL     1      20.598 -25.415  86.203  1.00  0.00     0.106 C 
ATOM     15  C   UNL     1      21.617 -28.878  90.552  1.00  0.00     0.009 A 
ATOM     16  C   UNL     1      19.788 -29.781  91.908  1.00  0.00     0.027 A 
ATOM     17  C   UNL     1      21.106 -29.844  91.420  1.00  0.00     0.003 A 
ENDROOT
BRANCH   6  18
ATOM     18  C   UNL     1      23.758 -24.981  87.322  1.00  0.00     0.230 C 
ATOM     19  O   UNL     1      23.560 -24.359  86.273  1.00  0.00    -0.274 OA
ATOM     20  N   UNL     1      25.003 -25.575  87.585  1.00  0.00    -0.343 N 
BRANCH  20  21
ATOM     21  C   UNL     1      25.038 -27.040  87.696  1.00  0.00     0.116 C 
ATOM     22  C   UNL     1      25.793 -27.548  88.920  1.00  0.00     0.027 C 
ENDBRANCH  20  21
BRANCH  20  23
ATOM     23  C   UNL     1      26.137 -24.939  86.906  1.00  0.00     0.116 C 
ATOM     24  C   UNL     1      26.814 -25.828  85.875  1.00  0.00     0.027 C 
ENDBRANCH  20  23
ENDBRANCH   6  18
BRANCH   2  25
ATOM     25  C   UNL     1      16.645 -28.915  92.597  1.00  0.00     0.230 C 
ATOM     26  O   UNL     1      16.795 -28.883  93.816  1.00  0.00    -0.274 OA
BRANCH  25  27
ATOM     27  C   UNL     1      15.468 -29.548  91.909  1.00  0.00     0.097 C 
ATOM     28  C   UNL     1      15.905 -30.506  90.809  1.00  0.00     0.014 C 
ENDBRANCH  25  27
ENDBRANCH   2  25
TORSDOF 5
ENDMDL
MODEL 3
REMARK VINA RESULT:    -9.067      1.563      2.300
REMARK INTER + INTRA:         -12.335
REMARK INTER:                 -11.825
REMARK INTRA:                  -0.510
REMARK UNBOUND:                -0.618
REMARK SMILES CCC(=O)n1cc2c3c(cccc31)C1=C[C@@H](C(=O)N(CC)CC)CN(C)[C@@H]1C2
REMARK SMILES IDX 25 1 5 2 27 3 14 4 28 5 16 6 24 7 7 8 9 9 8 10 15 11 13 12
REMARK SMILES IDX 6 13 26 14 10 15 12 16 11 17 17 18 18 19 19 20 20 21 21 22
REMARK SMILES IDX 22 23 23 24 3 25 4 26 2 27 1 28
REMARK H PARENT
ROOT
ATOM      1  N   UNL     1      20.483 -24.453  88.449  1.00  0.00    -0.298 NA
ATOM      2  N   UNL     1      16.998 -25.157  83.578  1.00  0.00    -0.287 N 
ATOM      3  C   UNL     1      20.027 -24.627  87.051  1.00  0.00     0.091 C 
ATOM      4  C   UNL     1      20.733 -25.749  86.253  1.00  0.00    -0.026 C 
ATOM      5  C   UNL     1      18.464 -24.777  87.003  1.00  0.00     0.061 C 
ATOM      6  C   UNL     1      21.930 -26.567  88.279  1.00  0.00     0.116 C 
ATOM      7  C   UNL     1      20.897 -25.727  89.070  1.00  0.00     0.102 C 
ATOM      8  C   UNL     1      18.033 -24.996  85.586  1.00  0.00    -0.019 A 
ATOM      9  C   UNL     1      20.282 -25.907  84.852  1.00  0.00    -0.011 A 
ATOM     10  C   UNL     1      18.942 -25.522  84.645  1.00  0.00     0.011 A 
ATOM     11  C   UNL     1      21.610 -26.604  86.811  1.00  0.00    -0.007 C 
ATOM     12  C   UNL     1      18.316 -25.618  83.402  1.00  0.00     0.056 A 
ATOM     13  C   UNL     1      16.858 -24.781  84.921  1.00  0.00     0.099 A 
ATOM     14  C   UNL     1      21.532 -23.441  88.556  1.00  0.00     0.106 C 
ATOM     15  C   UNL     1      21.007 -26.401  83.770  1.00  0.00     0.009 A 
ATOM     16  C   UNL     1      19.060 -26.116  82.312  1.00  0.00     0.027 A 
ATOM     17  C   UNL     1      20.398 -26.497  82.518  1.00  0.00     0.003 A 
ENDROOT
BRANCH   6  18
ATOM     18  C   UNL     1      23.386 -26.262  88.723  1.00  0.00     0.230 C 
ATOM     19  O   UNL     1      23.694 -26.268  89.918  1.00  0.00    -0.274 OA
ATOM     20  N   UNL     1      24.371 -26.205  87.723  1.00  0.00    -0.343 N 
BRANCH  20  21
ATOM     21  C   UNL     1      24.386 -25.015  86.861  1.00  0.00     0.116 C 
ATOM     22  C   UNL     1      25.780 -24.608  86.395  1.00  0.00     0.027 C 
ENDBRANCH  20  21
BRANCH  20  23
ATOM     23  C   UNL     1      25.675 -26.744  88.123  1.00  0.00     0.116 C 
ATOM     24  C   UNL     1      26.075 -28.007  87.377  1.00  0.00     0.027 C 
ENDBRANCH  20  23
ENDBRANCH   6  18
BRANCH   2  25
ATOM     25  C   UNL     1      15.925 -25.041  82.660  1.00  0.00     0.230 C 
ATOM     26  O   UNL     1      16.149 -24.570  81.548  1.00  0.00    -0.274 OA
BRANCH  25  27
ATOM     27  C   UNL     1      14.572 -25.507  83.121  1.00  0.00     0.097 C 
ATOM     28  C   UNL     1      13.483 -25.163  82.115  1.00  0.00     0.014 C 
ENDBRANCH  25  27
ENDBRANCH   2  25
TORSDOF 5
ENDMDL
MODEL 4
REMARK VINA RESULT:    -9.056      1.301      1.589
REMARK INTER + INTRA:         -12.321
REMARK INTER:                 -11.441
REMARK INTRA:                  -0.880
REMARK UNBOUND:                -0.618
REMARK SMILES CCC(=O)n1cc2c3c(cccc31)C1=C[C@@H](C(=O)N(CC)CC)CN(C)[C@@H]1C2
REMARK SMILES IDX 25 1 5 2 27 3 14 4 28 5 16 6 24 7 7 8 9 9 8 10 15 11 13 12
REMARK SMILES IDX 6 13 26 14 10 15 12 16 11 17 17 18 18 19 19 20 20 21 21 22
REMARK SMILES IDX 22 23 23 24 3 25 4 26 2 27 1 28
REMARK H PARENT
ROOT
ATOM      1  N   UNL     1      20.005 -24.280  87.507  1.00  0.00    -0.298 NA
ATOM      2  N   UNL     1      16.302 -25.184  82.834  1.00  0.00    -0.287 N 
ATOM      3  C   UNL     1      19.486 -24.515  86.140  1.00  0.00     0.091 C 
ATOM      4  C   UNL     1      20.150 -25.678  85.364  1.00  0.00    -0.026 C 
ATOM      5  C   UNL     1      17.922 -24.656  86.169  1.00  0.00     0.061 C 
ATOM      6  C   UNL     1      21.434 -26.409  87.370  1.00  0.00     0.116 C 
ATOM      7  C   UNL     1      20.440 -25.526  88.166  1.00  0.00     0.102 C 
ATOM      8  C   UNL     1      17.427 -24.938  84.784  1.00  0.00    -0.019 A 
ATOM      9  C   UNL     1      19.636 -25.897  83.993  1.00  0.00    -0.011 A 
ATOM     10  C   UNL     1      18.290 -25.512  83.829  1.00  0.00     0.011 A 
ATOM     11  C   UNL     1      21.047 -26.511  85.920  1.00  0.00    -0.007 C 
ATOM     12  C   UNL     1      17.609 -25.662  82.620  1.00  0.00     0.056 A 
ATOM     13  C   UNL     1      16.224 -24.746  84.162  1.00  0.00     0.099 A 
ATOM     14  C   UNL     1      21.063 -23.271  87.520  1.00  0.00     0.106 C 
ATOM     15  C   UNL     1      20.309 -26.444  82.903  1.00  0.00     0.009 A 
ATOM     16  C   UNL     1      18.300 -26.213  81.522  1.00  0.00     0.027 A 
ATOM     17  C   UNL     1      19.645 -26.594  81.686  1.00  0.00     0.003 A 
ENDROOT
BRANCH   6  18
ATOM     18  C   UNL     1      22.909 -26.094  87.733  1.00  0.00     0.230 C 
ATOM     19  O   UNL     1      23.669 -25.592  86.900  1.00  0.00    -0.274 OA
ATOM     20  N   UNL     1      23.280 -26.188  89.085  1.00  0.00    -0.343 N 
BRANCH  20  21
ATOM     21  C   UNL     1      23.430 -27.536  89.649  1.00  0.00     0.116 C 
ATOM     22  C   UNL     1      24.462 -28.397  88.927  1.00  0.00     0.027 C 
ENDBRANCH  20  21
BRANCH  20  23
ATOM     23  C   UNL     1      24.253 -25.181  89.520  1.00  0.00     0.116 C 
ATOM     24  C   UNL     1      23.623 -23.885  90.007  1.00  0.00     0.027 C 
ENDBRANCH  20  23
ENDBRANCH   6  18
BRANCH   2  25
ATOM     25  C   UNL     1      15.189 -25.103  81.960  1.00  0.00     0.230 C 
ATOM     26  O   UNL     1      14.094 -25.484  82.366  1.00  0.00    -0.274 OA
BRANCH  25  27
ATOM     27  C   UNL     1      15.432 -24.552  80.583  1.00  0.00     0.097 C 
ATOM     28  C   UNL     1      14.801 -25.424  79.507  1.00  0.00     0.014 C 
ENDBRANCH  25  27
ENDBRANCH   2  25
TORSDOF 5
ENDMDL
MODEL 5
REMARK VINA RESULT:    -8.549      5.342      7.180
REMARK INTER + INTRA:         -11.666
REMARK INTER:                 -10.990
REMARK INTRA:                  -0.676
REMARK UNBOUND:                -0.618
REMARK SMILES CCC(=O)n1cc2c3c(cccc31)C1=C[C@@H](C(=O)N(CC)CC)CN(C)[C@@H]1C2
REMARK SMILES IDX 25 1 5 2 27 3 14 4 28 5 16 6 24 7 7 8 9 9 8 10 15 11 13 12
REMARK SMILES IDX 6 13 26 14 10 15 12 16 11 17 17 18 18 19 19 20 20 21 21 22
REMARK SMILES IDX 22 23 23 24 3 25 4 26 2 27 1 28
REMARK H PARENT
ROOT
ATOM      1  N   UNL     1      23.989 -27.686  91.764  1.00  0.00    -0.298 NA
ATOM      2  N   UNL     1      18.252 -29.267  90.783  1.00  0.00    -0.287 N 
ATOM      3  C   UNL     1      22.603 -27.725  91.245  1.00  0.00     0.091 C 
ATOM      4  C   UNL     1      22.465 -27.674  89.703  1.00  0.00    -0.026 C 
ATOM      5  C   UNL     1      21.826 -28.946  91.855  1.00  0.00     0.061 C 
ATOM      6  C   UNL     1      24.927 -27.888  89.383  1.00  0.00     0.116 C 
ATOM      7  C   UNL     1      24.948 -28.351  90.861  1.00  0.00     0.102 C 
ATOM      8  C   UNL     1      20.445 -28.989  91.280  1.00  0.00    -0.019 A 
ATOM      9  C   UNL     1      21.077 -27.698  89.192  1.00  0.00    -0.011 A 
ATOM     10  C   UNL     1      20.178 -28.379  90.037  1.00  0.00     0.011 A 
ATOM     11  C   UNL     1      23.522 -27.722  88.872  1.00  0.00    -0.007 C 
ATOM     12  C   UNL     1      18.827 -28.538  89.724  1.00  0.00     0.056 A 
ATOM     13  C   UNL     1      19.264 -29.523  91.718  1.00  0.00     0.099 A 
ATOM     14  C   UNL     1      24.411 -26.324  92.084  1.00  0.00     0.106 C 
ATOM     15  C   UNL     1      20.593 -27.162  88.001  1.00  0.00     0.009 A 
ATOM     16  C   UNL     1      18.347 -27.989  88.518  1.00  0.00     0.027 A 
ATOM     17  C   UNL     1      19.244 -27.306  87.676  1.00  0.00     0.003 A 
ENDROOT
BRANCH   6  18
ATOM     18  C   UNL     1      25.961 -26.763  89.112  1.00  0.00     0.230 C 
ATOM     19  O   UNL     1      27.073 -26.788  89.650  1.00  0.00    -0.274 OA
ATOM     20  N   UNL     1      25.680 -25.856  88.078  1.00  0.00    -0.343 N 
BRANCH  20  21
ATOM     21  C   UNL     1      24.647 -24.842  88.335  1.00  0.00     0.116 C 
ATOM     22  C   UNL     1      23.623 -24.706  87.214  1.00  0.00     0.027 C 
ENDBRANCH  20  21
BRANCH  20  23
ATOM     23  C   UNL     1      26.854 -25.419  87.315  1.00  0.00     0.116 C 
ATOM     24  C   UNL     1      26.851 -25.879  85.865  1.00  0.00     0.027 C 
ENDBRANCH  20  23
ENDBRANCH   6  18
BRANCH   2  25
ATOM     25  C   UNL     1      16.924 -29.715  90.987  1.00  0.00     0.230 C 
ATOM     26  O   UNL     1      16.499 -30.633  90.290  1.00  0.00    -0.274 OA
BRANCH  25  27
ATOM     27  C   UNL     1      16.121 -29.026  92.054  1.00  0.00     0.097 C 
ATOM     28  C   UNL     1      15.074 -29.951  92.660  1.00  0.00     0.014 C 
ENDBRANCH  25  27
ENDBRANCH   2  25
TORSDOF 5
ENDMDL
MODEL 6
REMARK VINA RESULT:    -8.456      5.682      6.991
REMARK INTER + INTRA:         -11.546
REMARK INTER:                 -10.907
REMARK INTRA:                  -0.639
REMARK UNBOUND:                -0.618
REMARK SMILES CCC(=O)n1cc2c3c(cccc31)C1=C[C@@H](C(=O)N(CC)CC)CN(C)[C@@H]1C2
REMARK SMILES IDX 25 1 5 2 27 3 14 4 28 5 16 6 24 7 7 8 9 9 8 10 15 11 13 12
REMARK SMILES IDX 6 13 26 14 10 15 12 16 11 17 17 18 18 19 19 20 20 21 21 22
REMARK SMILES IDX 22 23 23 24 3 25 4 26 2 27 1 28
REMARK H PARENT
ROOT
ATOM      1  N   UNL     1      22.005 -24.560  88.568  1.00  0.00    -0.298 NA
ATOM      2  N   UNL     1      17.716 -28.054  90.969  1.00  0.00    -0.287 N 
ATOM      3  C   UNL     1      21.266 -25.731  89.094  1.00  0.00     0.091 C 
ATOM      4  C   UNL     1      22.030 -26.595  90.127  1.00  0.00    -0.026 C 
ATOM      5  C   UNL     1      19.860 -25.288  89.636  1.00  0.00     0.061 C 
ATOM      6  C   UNL     1      23.905 -24.958  90.248  1.00  0.00     0.116 C 
ATOM      7  C   UNL     1      22.920 -23.976  89.568  1.00  0.00     0.102 C 
ATOM      8  C   UNL     1      19.153 -26.480  90.203  1.00  0.00    -0.019 A 
ATOM      9  C   UNL     1      21.291 -27.771  90.637  1.00  0.00    -0.011 A 
ATOM     10  C   UNL     1      19.892 -27.597  90.642  1.00  0.00     0.011 A 
ATOM     11  C   UNL     1      23.233 -26.250  90.622  1.00  0.00    -0.007 C 
ATOM     12  C   UNL     1      19.015 -28.577  91.109  1.00  0.00     0.056 A 
ATOM     13  C   UNL     1      17.833 -26.775  90.410  1.00  0.00     0.099 A 
ATOM     14  C   UNL     1      22.704 -24.874  87.323  1.00  0.00     0.106 C 
ATOM     15  C   UNL     1      21.813 -28.970  91.116  1.00  0.00     0.009 A 
ATOM     16  C   UNL     1      19.555 -29.788  91.589  1.00  0.00     0.027 A 
ATOM     17  C   UNL     1      20.951 -29.962  91.581  1.00  0.00     0.003 A 
ENDROOT
BRANCH   6  18
ATOM     18  C   UNL     1      25.272 -25.009  89.516  1.00  0.00     0.230 C 
ATOM     19  O   UNL     1      25.912 -23.974  89.306  1.00  0.00    -0.274 OA
ATOM     20  N   UNL     1      25.852 -26.271  89.307  1.00  0.00    -0.343 N 
BRANCH  20  21
ATOM     21  C   UNL     1      25.262 -27.117  88.261  1.00  0.00     0.116 C 
ATOM     22  C   UNL     1      26.279 -27.967  87.507  1.00  0.00     0.027 C 
ENDBRANCH  20  21
BRANCH  20  23
ATOM     23  C   UNL     1      27.314 -26.297  89.427  1.00  0.00     0.116 C 
ATOM     24  C   UNL     1      27.813 -26.344  90.863  1.00  0.00     0.027 C 
ENDBRANCH  20  23
ENDBRANCH   6  18
BRANCH   2  25
ATOM     25  C   UNL     1      16.452 -28.610  91.289  1.00  0.00     0.230 C 
ATOM     26  O   UNL     1      15.710 -28.952  90.372  1.00  0.00    -0.274 OA
BRANCH  25  27
ATOM     27  C   UNL     1      16.106 -28.739  92.746  1.00  0.00     0.097 C 
ATOM     28  C   UNL     1      15.039 -29.798  92.981  1.00  0.00     0.014 C 
ENDBRANCH  25  27
ENDBRANCH   2  25
TORSDOF 5
ENDMDL
MODEL 7
REMARK VINA RESULT:    -8.396      5.813      9.408
REMARK INTER + INTRA:         -11.468
REMARK INTER:                 -10.929
REMARK INTRA:                  -0.539
REMARK UNBOUND:                -0.618
REMARK SMILES CCC(=O)n1cc2c3c(cccc31)C1=C[C@@H](C(=O)N(CC)CC)CN(C)[C@@H]1C2
REMARK SMILES IDX 25 1 5 2 27 3 14 4 28 5 16 6 24 7 7 8 9 9 8 10 15 11 13 12
REMARK SMILES IDX 6 13 26 14 10 15 12 16 11 17 17 18 18 19 19 20 20 21 21 22
REMARK SMILES IDX 22 23 23 24 3 25 4 26 2 27 1 28
REMARK H PARENT
ROOT
ATOM      1  N   UNL     1      19.310 -26.674  89.400  1.00  0.00    -0.298 NA
ATOM      2  N   UNL     1      25.062 -25.566  87.966  1.00  0.00    -0.287 N 
ATOM      3  C   UNL     1      20.776 -26.482  89.485  1.00  0.00     0.091 C 
ATOM      4  C   UNL     1      21.557 -27.612  90.198  1.00  0.00    -0.026 C 
ATOM      5  C   UNL     1      21.369 -26.177  88.063  1.00  0.00     0.061 C 
ATOM      6  C   UNL     1      19.529 -29.053  90.341  1.00  0.00     0.116 C 
ATOM      7  C   UNL     1      18.934 -28.096  89.278  1.00  0.00     0.102 C 
ATOM      8  C   UNL     1      22.855 -26.032  88.168  1.00  0.00    -0.019 A 
ATOM      9  C   UNL     1      23.020 -27.407  90.292  1.00  0.00    -0.011 A 
ATOM     10  C   UNL     1      23.548 -26.632  89.240  1.00  0.00     0.011 A 
ATOM     11  C   UNL     1      20.980 -28.758  90.604  1.00  0.00    -0.007 C 
ATOM     12  C   UNL     1      24.909 -26.344  89.129  1.00  0.00     0.056 A 
ATOM     13  C   UNL     1      23.790 -25.390  87.405  1.00  0.00     0.099 A 
ATOM     14  C   UNL     1      18.613 -26.029  90.511  1.00  0.00     0.106 C 
ATOM     15  C   UNL     1      23.894 -27.901  91.257  1.00  0.00     0.009 A 
ATOM     16  C   UNL     1      25.785 -26.846  90.113  1.00  0.00     0.027 A 
ATOM     17  C   UNL     1      25.257 -27.617  91.165  1.00  0.00     0.003 A 
ENDROOT
BRANCH   6  18
ATOM     18  C   UNL     1      18.573 -29.246  91.547  1.00  0.00     0.230 C 
ATOM     19  O   UNL     1      19.015 -29.298  92.699  1.00  0.00    -0.274 OA
ATOM     20  N   UNL     1      17.193 -29.135  91.308  1.00  0.00    -0.343 N 
BRANCH  20  21
ATOM     21  C   UNL     1      16.539 -30.251  90.612  1.00  0.00     0.116 C 
ATOM     22  C   UNL     1      15.188 -30.640  91.202  1.00  0.00     0.027 C 
ENDBRANCH  20  21
BRANCH  20  23
ATOM     23  C   UNL     1      16.436 -28.503  92.394  1.00  0.00     0.116 C 
ATOM     24  C   UNL     1      15.565 -27.341  91.942  1.00  0.00     0.027 C 
ENDBRANCH  20  23
ENDBRANCH   6  18
BRANCH   2  25
ATOM     25  C   UNL     1      26.219 -25.005  87.370  1.00  0.00     0.230 C 
ATOM     26  O   UNL     1      26.589 -23.892  87.736  1.00  0.00    -0.274 OA
BRANCH  25  27
ATOM     27  C   UNL     1      26.917 -25.822  86.319  1.00  0.00     0.097 C 
ATOM     28  C   UNL     1      26.791 -27.314  86.588  1.00  0.00     0.014 C 
ENDBRANCH  25  27
ENDBRANCH   2  25
TORSDOF 5
ENDMDL
MODEL 8
REMARK VINA RESULT:    -8.259      2.927      9.783
REMARK INTER + INTRA:         -11.292
REMARK INTER:                 -10.556
REMARK INTRA:                  -0.735
REMARK UNBOUND:                -0.618
REMARK SMILES CCC(=O)n1cc2c3c(cccc31)C1=C[C@@H](C(=O)N(CC)CC)CN(C)[C@@H]1C2
REMARK SMILES IDX 25 1 5 2 27 3 14 4 28 5 16 6 24 7 7 8 9 9 8 10 15 11 13 12
REMARK SMILES IDX 6 13 26 14 10 15 12 16 11 17 17 18 18 19 19 20 20 21 21 22
REMARK SMILES IDX 22 23 23 24 3 25 4 26 2 27 1 28
REMARK H PARENT
ROOT
ATOM      1  N   UNL     1      20.609 -26.534  88.914  1.00  0.00    -0.298 NA
ATOM      2  N   UNL     1      26.443 -26.560  90.443  1.00  0.00    -0.287 N 
ATOM      3  C   UNL     1      22.088 -26.564  88.845  1.00  0.00     0.091 C 
ATOM      4  C   UNL     1      22.731 -25.558  87.860  1.00  0.00    -0.026 C 
ATOM      5  C   UNL     1      22.703 -26.438  90.285  1.00  0.00     0.061 C 
ATOM      6  C   UNL     1      20.544 -24.451  87.415  1.00  0.00     0.116 C 
ATOM      7  C   UNL     1      20.062 -25.181  88.693  1.00  0.00     0.102 C 
ATOM      8  C   UNL     1      24.197 -26.425  90.183  1.00  0.00    -0.019 A 
ATOM      9  C   UNL     1      24.209 -25.605  87.785  1.00  0.00    -0.011 A 
ATOM     10  C   UNL     1      24.820 -26.029  88.982  1.00  0.00     0.011 A 
ATOM     11  C   UNL     1      22.022 -24.625  87.199  1.00  0.00    -0.007 C 
ATOM     12  C   UNL     1      26.205 -26.115  89.129  1.00  0.00     0.056 A 
ATOM     13  C   UNL     1      25.198 -26.744  91.059  1.00  0.00     0.099 A 
ATOM     14  C   UNL     1      20.003 -27.510  88.011  1.00  0.00     0.106 C 
ATOM     15  C   UNL     1      25.023 -25.262  86.708  1.00  0.00     0.009 A 
ATOM     16  C   UNL     1      27.020 -25.770  88.031  1.00  0.00     0.027 A 
ATOM     17  C   UNL     1      26.409 -25.349  86.835  1.00  0.00     0.003 A 
ENDROOT
BRANCH   6  18
ATOM     18  C   UNL     1      19.580 -24.675  86.220  1.00  0.00     0.230 C 
ATOM     19  O   UNL     1      20.008 -25.074  85.133  1.00  0.00    -0.274 OA
ATOM     20  N   UNL     1      18.200 -24.627  86.480  1.00  0.00    -0.343 N 
BRANCH  20  21
ATOM     21  C   UNL     1      17.605 -23.304  86.711  1.00  0.00     0.116 C 
ATOM     22  C   UNL     1      18.469 -22.145  86.226  1.00  0.00     0.027 C 
ENDBRANCH  20  21
BRANCH  20  23
ATOM     23  C   UNL     1      17.402 -25.582  85.704  1.00  0.00     0.116 C 
ATOM     24  C   UNL     1      16.073 -25.022  85.219  1.00  0.00     0.027 C 
ENDBRANCH  20  23
ENDBRANCH   6  18
BRANCH   2  25
ATOM     25  C   UNL     1      27.655 -26.815  91.131  1.00  0.00     0.230 C 
ATOM     26  O   UNL     1      28.190 -27.913  90.995  1.00  0.00    -0.274 OA
BRANCH  25  27
ATOM     27  C   UNL     1      28.204 -25.711  91.991  1.00  0.00     0.097 C 
ATOM     28  C   UNL     1      28.517 -26.195  93.400  1.00  0.00     0.014 C 
ENDBRANCH  25  27
ENDBRANCH   2  25
TORSDOF 5
ENDMDL
MODEL 9
REMARK VINA RESULT:    -8.241      5.217      9.273
REMARK INTER + INTRA:         -11.268
REMARK INTER:                 -10.317
REMARK INTRA:                  -0.951
REMARK UNBOUND:                -0.618
REMARK SMILES CCC(=O)n1cc2c3c(cccc31)C1=C[C@@H](C(=O)N(CC)CC)CN(C)[C@@H]1C2
REMARK SMILES IDX 25 1 5 2 27 3 14 4 28 5 16 6 24 7 7 8 9 9 8 10 15 11 13 12
REMARK SMILES IDX 6 13 26 14 10 15 12 16 11 17 17 18 18 19 19 20 20 21 21 22
REMARK SMILES IDX 22 23 23 24 3 25 4 26 2 27 1 28
REMARK H PARENT
ROOT
ATOM      1  N   UNL     1      20.258 -28.940  91.689  1.00  0.00    -0.298 NA
ATOM      2  N   UNL     1      24.555 -26.120  88.532  1.00  0.00    -0.287 N 
ATOM      3  C   UNL     1      21.030 -28.336  90.579  1.00  0.00     0.091 C 
ATOM      4  C   UNL     1      20.240 -27.366  89.666  1.00  0.00    -0.026 C 
ATOM      5  C   UNL     1      22.344 -27.673  91.126  1.00  0.00     0.061 C 
ATOM      6  C   UNL     1      18.247 -27.434  91.160  1.00  0.00     0.116 C 
ATOM      7  C   UNL     1      19.216 -28.034  92.209  1.00  0.00     0.102 C 
ATOM      8  C   UNL     1      23.082 -27.031  89.993  1.00  0.00    -0.019 A 
ATOM      9  C   UNL     1      21.014 -26.778  88.549  1.00  0.00    -0.011 A 
ATOM     10  C   UNL     1      22.390 -26.649  88.826  1.00  0.00     0.011 A 
ATOM     11  C   UNL     1      18.975 -26.986  89.923  1.00  0.00    -0.007 C 
ATOM     12  C   UNL     1      23.289 -26.092  87.916  1.00  0.00     0.056 A 
ATOM     13  C   UNL     1      24.396 -26.702  89.797  1.00  0.00     0.099 A 
ATOM     14  C   UNL     1      19.701 -30.239  91.318  1.00  0.00     0.106 C 
ATOM     15  C   UNL     1      20.538 -26.335  87.318  1.00  0.00     0.009 A 
ATOM     16  C   UNL     1      22.798 -25.650  86.670  1.00  0.00     0.027 A 
ATOM     17  C   UNL     1      21.425 -25.782  86.394  1.00  0.00     0.003 A 
ENDROOT
BRANCH   6  18
ATOM     18  C   UNL     1      16.960 -28.287  91.005  1.00  0.00     0.230 C 
ATOM     19  O   UNL     1      16.589 -28.670  89.891  1.00  0.00    -0.274 OA
ATOM     20  N   UNL     1      16.368 -28.789  92.176  1.00  0.00    -0.343 N 
BRANCH  20  21
ATOM     21  C   UNL     1      15.635 -27.837  93.021  1.00  0.00     0.116 C 
ATOM     22  C   UNL     1      14.696 -26.919  92.245  1.00  0.00     0.027 C 
ENDBRANCH  20  21
BRANCH  20  23
ATOM     23  C   UNL     1      15.787 -30.129  92.037  1.00  0.00     0.116 C 
ATOM     24  C   UNL     1      14.695 -30.434  93.050  1.00  0.00     0.027 C 
ENDBRANCH  20  23
ENDBRANCH   6  18
BRANCH   2  25
ATOM     25  C   UNL     1      25.821 -25.680  88.073  1.00  0.00     0.230 C 
ATOM     26  O   UNL     1      26.362 -24.740  88.649  1.00  0.00    -0.274 OA
BRANCH  25  27
ATOM     27  C   UNL     1      26.417 -26.404  86.898  1.00  0.00     0.097 C 
ATOM     28  C   UNL     1      26.533 -27.900  87.156  1.00  0.00     0.014 C 
ENDBRANCH  25  27
ENDBRANCH   2  25
TORSDOF 5
ENDMDL
MODEL 10
REMARK VINA RESULT:    -8.221      5.910      9.761
REMARK INTER + INTRA:         -11.242
REMARK INTER:                 -10.726
REMARK INTRA:                  -0.515
REMARK UNBOUND:                -0.618
REMARK SMILES CCC(=O)n1cc2c3c(cccc31)C1=C[C@@H](C(=O)N(CC)CC)CN(C)[C@@H]1C2
REMARK SMILES IDX 25 1 5 2 27 3 14 4 28 5 16 6 24 7 7 8 9 9 8 10 15 11 13 12
REMARK SMILES IDX 6 13 26 14 10 15 12 16 11 17 17 18 18 19 19 20 20 21 21 22
REMARK SMILES IDX 22 23 23 24 3 25 4 26 2 27 1 28
REMARK H PARENT
ROOT
ATOM      1  N   UNL     1      19.015 -26.642  89.519  1.00  0.00    -0.298 NA
ATOM      2  N   UNL     1      25.002 -26.652  88.793  1.00  0.00    -0.287 N 
ATOM      3  C   UNL     1      20.470 -26.689  89.786  1.00  0.00     0.091 C 
ATOM      4  C   UNL     1      20.948 -27.858  90.682  1.00  0.00    -0.026 C 
ATOM      5  C   UNL     1      21.274 -26.627  88.438  1.00  0.00     0.061 C 
ATOM      6  C   UNL     1      18.694 -28.919  90.660  1.00  0.00     0.116 C 
ATOM      7  C   UNL     1      18.409 -27.986  89.457  1.00  0.00     0.102 C 
ATOM      8  C   UNL     1      22.738 -26.723  88.731  1.00  0.00    -0.019 A 
ATOM      9  C   UNL     1      22.402 -27.890  90.956  1.00  0.00    -0.011 A 
ATOM     10  C   UNL     1      23.181 -27.321  89.929  1.00  0.00     0.011 A 
ATOM     11  C   UNL     1      20.132 -28.846  91.092  1.00  0.00    -0.007 C 
ATOM     12  C   UNL     1      24.575 -27.276  89.980  1.00  0.00     0.056 A 
ATOM     13  C   UNL     1      23.857 -26.323  88.054  1.00  0.00     0.099 A 
ATOM     14  C   UNL     1      18.315 -25.784  90.474  1.00  0.00     0.106 C 
ATOM     15  C   UNL     1      23.053 -28.425  92.065  1.00  0.00     0.009 A 
ATOM     16  C   UNL     1      25.224 -27.817  91.109  1.00  0.00     0.027 A 
ATOM     17  C   UNL     1      24.445 -28.383  92.136  1.00  0.00     0.003 A 
ENDROOT
BRANCH   6  18
ATOM     18  C   UNL     1      17.581 -28.832  91.738  1.00  0.00     0.230 C 
ATOM     19  O   UNL     1      17.867 -28.832  92.939  1.00  0.00    -0.274 OA
ATOM     20  N   UNL     1      16.280 -28.529  91.306  1.00  0.00    -0.343 N 
BRANCH  20  21
ATOM     21  C   UNL     1      15.533 -29.594  90.623  1.00  0.00     0.116 C 
ATOM     22  C   UNL     1      16.231 -30.949  90.644  1.00  0.00     0.027 C 
ENDBRANCH  20  21
BRANCH  20  23
ATOM     23  C   UNL     1      15.517 -27.675  92.223  1.00  0.00     0.116 C 
ATOM     24  C   UNL     1      14.152 -28.233  92.592  1.00  0.00     0.027 C 
ENDBRANCH  20  23
ENDBRANCH   6  18
BRANCH   2  25
ATOM     25  C   UNL     1      26.302 -26.352  88.317  1.00  0.00     0.230 C 
ATOM     26  O   UNL     1      27.050 -25.685  89.028  1.00  0.00    -0.274 OA
BRANCH  25  27
ATOM     27  C   UNL     1      26.677 -26.877  86.960  1.00  0.00     0.097 C 
ATOM     28  C   UNL     1      26.801 -25.758  85.936  1.00  0.00     0.014 C 
ENDBRANCH  25  27
ENDBRANCH   2  25
TORSDOF 5
ENDMDL
MODEL 11
REMARK VINA RESULT:    -8.037      4.143      7.502
REMARK INTER + INTRA:         -11.004
REMARK INTER:                 -10.352
REMARK INTRA:                  -0.651
REMARK UNBOUND:                -0.618
REMARK SMILES CCC(=O)n1cc2c3c(cccc31)C1=C[C@@H](C(=O)N(CC)CC)CN(C)[C@@H]1C2
REMARK SMILES IDX 25 1 5 2 27 3 14 4 28 5 16 6 24 7 7 8 9 9 8 10 15 11 13 12
REMARK SMILES IDX 6 13 26 14 10 15 12 16 11 17 17 18 18 19 19 20 20 21 21 22
REMARK SMILES IDX 22 23 23 24 3 25 4 26 2 27 1 28
REMARK H PARENT
ROOT
ATOM      1  N   UNL     1      25.836 -24.960  90.745  1.00  0.00    -0.298 NA
ATOM      2  N   UNL     1      20.807 -24.961  87.416  1.00  0.00    -0.287 N 
ATOM      3  C   UNL     1      24.664 -25.403  89.956  1.00  0.00     0.091 C 
ATOM      4  C   UNL     1      23.782 -26.488  90.621  1.00  0.00    -0.026 C 
ATOM      5  C   UNL     1      23.812 -24.163  89.504  1.00  0.00     0.061 C 
ATOM      6  C   UNL     1      25.041 -26.330  92.766  1.00  0.00     0.116 C 
ATOM      7  C   UNL     1      25.583 -24.994  92.198  1.00  0.00     0.102 C 
ATOM      8  C   UNL     1      22.611 -24.639  88.749  1.00  0.00    -0.019 A 
ATOM      9  C   UNL     1      22.621 -26.936  89.821  1.00  0.00    -0.011 A 
ATOM     10  C   UNL     1      22.122 -25.946  88.950  1.00  0.00     0.011 A 
ATOM     11  C   UNL     1      23.977 -26.918  91.881  1.00  0.00    -0.007 C 
ATOM     12  C   UNL     1      21.015 -26.158  88.128  1.00  0.00     0.056 A 
ATOM     13  C   UNL     1      21.800 -24.055  87.814  1.00  0.00     0.099 A 
ATOM     14  C   UNL     1      27.041 -25.710  90.394  1.00  0.00     0.106 C 
ATOM     15  C   UNL     1      21.982 -28.173  89.857  1.00  0.00     0.009 A 
ATOM     16  C   UNL     1      20.377 -27.415  88.170  1.00  0.00     0.027 A 
ATOM     17  C   UNL     1      20.877 -28.404  89.037  1.00  0.00     0.003 A 
ENDROOT
BRANCH   6  18
ATOM     18  C   UNL     1      26.182 -27.247  93.279  1.00  0.00     0.230 C 
ATOM     19  O   UNL     1      26.792 -27.988  92.502  1.00  0.00    -0.274 OA
ATOM     20  N   UNL     1      26.641 -27.043  94.591  1.00  0.00    -0.343 N 
BRANCH  20  21
ATOM     21  C   UNL     1      25.777 -27.507  95.685  1.00  0.00     0.116 C 
ATOM     22  C   UNL     1      26.327 -27.207  97.076  1.00  0.00     0.027 C 
ENDBRANCH  20  21
BRANCH  20  23
ATOM     23  C   UNL     1      28.085 -27.232  94.767  1.00  0.00     0.116 C 
ATOM     24  C   UNL     1      28.908 -25.986  94.481  1.00  0.00     0.027 C 
ENDBRANCH  20  23
ENDBRANCH   6  18
BRANCH   2  25
ATOM     25  C   UNL     1      19.827 -24.611  86.455  1.00  0.00     0.230 C 
ATOM     26  O   UNL     1      19.977 -24.988  85.296  1.00  0.00    -0.274 OA
BRANCH  25  27
ATOM     27  C   UNL     1      18.660 -23.790  86.930  1.00  0.00     0.097 C 
ATOM     28  C   UNL     1      18.625 -22.421  86.266  1.00  0.00     0.014 C 
ENDBRANCH  25  27
ENDBRANCH   2  25
TORSDOF 5
ENDMDL
MODEL 12
REMARK VINA RESULT:    -7.922      3.644      6.809
REMARK INTER + INTRA:         -10.856
REMARK INTER:                 -10.186
REMARK INTRA:                  -0.670
REMARK UNBOUND:                -0.618
REMARK SMILES CCC(=O)n1cc2c3c(cccc31)C1=C[C@@H](C(=O)N(CC)CC)CN(C)[C@@H]1C2
REMARK SMILES IDX 25 1 5 2 27 3 14 4 28 5 16 6 24 7 7 8 9 9 8 10 15 11 13 12
REMARK SMILES IDX 6 13 26 14 10 15 12 16 11 17 17 18 18 19 19 20 20 21 21 22
REMARK SMILES IDX 22 23 23 24 3 25 4 26 2 27 1 28
REMARK H PARENT
ROOT
ATOM      1  N   UNL     1      26.002 -25.552  89.329  1.00  0.00    -0.298 NA
ATOM      2  N   UNL     1      21.099 -25.853  85.829  1.00  0.00    -0.287 N 
ATOM      3  C   UNL     1      24.713 -25.976  88.735  1.00  0.00     0.091 C 
ATOM      4  C   UNL     1      23.557 -26.202  89.739  1.00  0.00    -0.026 C 
ATOM      5  C   UNL     1      24.295 -24.994  87.583  1.00  0.00     0.061 C 
ATOM      6  C   UNL     1      24.898 -25.291  91.632  1.00  0.00     0.116 C 
ATOM      7  C   UNL     1      25.820 -24.714  90.530  1.00  0.00     0.102 C 
ATOM      8  C   UNL     1      22.969 -25.417  87.031  1.00  0.00    -0.019 A 
ATOM      9  C   UNL     1      22.276 -26.640  89.140  1.00  0.00    -0.011 A 
ATOM     10  C   UNL     1      22.089 -26.187  87.819  1.00  0.00     0.011 A 
ATOM     11  C   UNL     1      23.659 -25.914  91.050  1.00  0.00    -0.007 C 
ATOM     12  C   UNL     1      20.936 -26.467  87.085  1.00  0.00     0.056 A 
ATOM     13  C   UNL     1      22.351 -25.224  85.826  1.00  0.00     0.099 A 
ATOM     14  C   UNL     1      26.876 -26.691  89.599  1.00  0.00     0.106 C 
ATOM     15  C   UNL     1      21.270 -27.399  89.732  1.00  0.00     0.009 A 
ATOM     16  C   UNL     1      19.925 -27.239  87.692  1.00  0.00     0.027 A 
ATOM     17  C   UNL     1      20.113 -27.695  89.010  1.00  0.00     0.003 A 
ENDROOT
BRANCH   6  18
ATOM     18  C   UNL     1      25.697 -26.074  92.706  1.00  0.00     0.230 C 
ATOM     19  O   UNL     1      26.802 -25.672  93.086  1.00  0.00    -0.274 OA
ATOM     20  N   UNL     1      25.034 -27.111  93.384  1.00  0.00    -0.343 N 
BRANCH  20  21
ATOM     21  C   UNL     1      24.808 -28.360  92.644  1.00  0.00     0.116 C 
ATOM     22  C   UNL     1      23.406 -28.935  92.817  1.00  0.00     0.027 C 
ENDBRANCH  20  21
BRANCH  20  23
ATOM     23  C   UNL     1      25.395 -27.241  94.799  1.00  0.00     0.116 C 
ATOM     24  C   UNL     1      24.256 -26.924  95.756  1.00  0.00     0.027 C 
ENDBRANCH  20  23
ENDBRANCH   6  18
BRANCH   2  25
ATOM     25  C   UNL     1      20.244 -25.806  84.701  1.00  0.00     0.230 C 
ATOM     26  O   UNL     1      19.174 -25.210  84.798  1.00  0.00    -0.274 OA
BRANCH  25  27
ATOM     27  C   UNL     1      20.713 -26.498  83.452  1.00  0.00     0.097 C 
ATOM     28  C   UNL     1      19.643 -26.494  82.368  1.00  0.00     0.014 C 
ENDBRANCH  25  27
ENDBRANCH   2  25
TORSDOF 5
ENDMDL
MODEL 13
REMARK VINA RESULT:    -7.910      5.638     10.721
REMARK INTER + INTRA:         -10.841
REMARK INTER:                 -10.024
REMARK INTRA:                  -0.817
REMARK UNBOUND:                -0.618
REMARK SMILES CCC(=O)n1cc2c3c(cccc31)C1=C[C@@H](C(=O)N(CC)CC)CN(C)[C@@H]1C2
REMARK SMILES IDX 25 1 5 2 27 3 14 4 28 5 16 6 24 7 7 8 9 9 8 10 15 11 13 12
REMARK SMILES IDX 6 13 26 14 10 15 12 16 11 17 17 18 18 19 19 20 20 21 21 22
REMARK SMILES IDX 22 23 23 24 3 25 4 26 2 27 1 28
REMARK H PARENT
ROOT
ATOM      1  N   UNL     1      21.081 -25.876  88.843  1.00  0.00    -0.298 NA
ATOM      2  N   UNL     1      26.522 -26.109  91.434  1.00  0.00    -0.287 N 
ATOM      3  C   UNL     1      22.173 -26.097  89.818  1.00  0.00     0.091 C 
ATOM      4  C   UNL     1      22.208 -27.497  90.477  1.00  0.00    -0.026 C 
ATOM      5  C   UNL     1      23.558 -25.725  89.177  1.00  0.00     0.061 C 
ATOM      6  C   UNL     1      20.409 -28.351  88.979  1.00  0.00     0.116 C 
ATOM      7  C   UNL     1      20.721 -27.106  88.111  1.00  0.00     0.102 C 
ATOM      8  C   UNL     1      24.649 -26.000  90.164  1.00  0.00    -0.019 A 
ATOM      9  C   UNL     1      23.294 -27.706  91.461  1.00  0.00    -0.011 A 
ATOM     10  C   UNL     1      24.444 -26.933  91.202  1.00  0.00     0.011 A 
ATOM     11  C   UNL     1      21.389 -28.500  90.109  1.00  0.00    -0.007 C 
ATOM     12  C   UNL     1      25.590 -27.003  91.995  1.00  0.00     0.056 A 
ATOM     13  C   UNL     1      25.916 -25.510  90.321  1.00  0.00     0.099 A 
ATOM     14  C   UNL     1      19.910 -25.266  89.470  1.00  0.00     0.106 C 
ATOM     15  C   UNL     1      23.305 -28.568  92.554  1.00  0.00     0.009 A 
ATOM     16  C   UNL     1      25.589 -27.877  93.101  1.00  0.00     0.027 A 
ATOM     17  C   UNL     1      24.440 -28.645  93.361  1.00  0.00     0.003 A 
ENDROOT
BRANCH   6  18
ATOM     18  C   UNL     1      18.893 -28.483  89.278  1.00  0.00     0.230 C 
ATOM     19  O   UNL     1      18.060 -28.364  88.374  1.00  0.00    -0.274 OA
ATOM     20  N   UNL     1      18.519 -28.960  90.545  1.00  0.00    -0.343 N 
BRANCH  20  21
ATOM     21  C   UNL     1      18.661 -28.037  91.680  1.00  0.00     0.116 C 
ATOM     22  C   UNL     1      19.193 -28.695  92.948  1.00  0.00     0.027 C 
ENDBRANCH  20  21
BRANCH  20  23
ATOM     23  C   UNL     1      17.335 -29.825  90.545  1.00  0.00     0.116 C 
ATOM     24  C   UNL     1      16.076 -29.145  91.059  1.00  0.00     0.027 C 
ENDBRANCH  20  23
ENDBRANCH   6  18
BRANCH   2  25
ATOM     25  C   UNL     1      27.845 -25.783  91.822  1.00  0.00     0.230 C 
ATOM     26  O   UNL     1      28.774 -26.131  91.098  1.00  0.00    -0.274 OA
BRANCH  25  27
ATOM     27  C   UNL     1      28.018 -25.027  93.110  1.00  0.00     0.097 C 
ATOM     28  C   UNL     1      28.854 -25.807  94.115  1.00  0.00     0.014 C 
ENDBRANCH  25  27
ENDBRANCH   2  25
TORSDOF 5
ENDMDL
MODEL 14
REMARK VINA RESULT:    -7.901      3.011      5.476
REMARK INTER + INTRA:         -10.828
REMARK INTER:                 -10.030
REMARK INTRA:                  -0.798
REMARK UNBOUND:                -0.618
REMARK SMILES CCC(=O)n1cc2c3c(cccc31)C1=C[C@@H](C(=O)N(CC)CC)CN(C)[C@@H]1C2
REMARK SMILES IDX 25 1 5 2 27 3 14 4 28 5 16 6 24 7 7 8 9 9 8 10 15 11 13 12
REMARK SMILES IDX 6 13 26 14 10 15 12 16 11 17 17 18 18 19 19 20 20 21 21 22
REMARK SMILES IDX 22 23 23 24 3 25 4 26 2 27 1 28
REMARK H PARENT
ROOT
ATOM      1  N   UNL     1      24.558 -24.606  88.323  1.00  0.00    -0.298 NA
ATOM      2  N   UNL     1      18.789 -24.799  86.577  1.00  0.00    -0.287 N 
ATOM      3  C   UNL     1      23.209 -25.092  87.956  1.00  0.00     0.091 C 
ATOM      4  C   UNL     1      22.551 -26.065  88.964  1.00  0.00    -0.026 C 
ATOM      5  C   UNL     1      22.266 -23.881  87.622  1.00  0.00     0.061 C 
ATOM      6  C   UNL     1      24.370 -25.715  90.631  1.00  0.00     0.116 C 
ATOM      7  C   UNL     1      24.730 -24.471  89.783  1.00  0.00     0.102 C 
ATOM      8  C   UNL     1      20.898 -24.395  87.298  1.00  0.00    -0.019 A 
ATOM      9  C   UNL     1      21.208 -26.558  88.583  1.00  0.00    -0.011 A 
ATOM     10  C   UNL     1      20.485 -25.654  87.780  1.00  0.00     0.011 A 
ATOM     11  C   UNL     1      23.096 -26.360  90.159  1.00  0.00    -0.007 C 
ATOM     12  C   UNL     1      19.188 -25.916  87.336  1.00  0.00     0.056 A 
ATOM     13  C   UNL     1      19.856 -23.890  86.570  1.00  0.00     0.099 A 
ATOM     14  C   UNL     1      25.611 -25.432  87.736  1.00  0.00     0.106 C 
ATOM     15  C   UNL     1      20.604 -27.760  88.942  1.00  0.00     0.009 A 
ATOM     16  C   UNL     1      18.586 -27.137  87.702  1.00  0.00     0.027 A 
ATOM     17  C   UNL     1      19.311 -28.041  88.501  1.00  0.00     0.003 A 
ENDROOT
BRANCH   6  18
ATOM     18  C   UNL     1      25.607 -26.610  90.904  1.00  0.00     0.230 C 
ATOM     19  O   UNL     1      25.711 -27.720  90.373  1.00  0.00    -0.274 OA
ATOM     20  N   UNL     1      26.692 -26.030  91.582  1.00  0.00    -0.343 N 
BRANCH  20  21
ATOM     21  C   UNL     1      26.540 -25.804  93.026  1.00  0.00     0.116 C 
ATOM     22  C   UNL     1      25.599 -26.791  93.709  1.00  0.00     0.027 C 
ENDBRANCH  20  21
BRANCH  20  23
ATOM     23  C   UNL     1      28.009 -26.484  91.123  1.00  0.00     0.116 C 
ATOM     24  C   UNL     1      28.881 -27.062  92.227  1.00  0.00     0.027 C 
ENDBRANCH  20  23
ENDBRANCH   6  18
BRANCH   2  25
ATOM     25  C   UNL     1      17.576 -24.523  85.899  1.00  0.00     0.230 C 
ATOM     26  O   UNL     1      16.709 -23.878  86.484  1.00  0.00    -0.274 OA
BRANCH  25  27
ATOM     27  C   UNL     1      17.436 -25.047  84.498  1.00  0.00     0.097 C 
ATOM     28  C   UNL     1      16.026 -25.552  84.222  1.00  0.00     0.014 C 
ENDBRANCH  25  27
ENDBRANCH   2  25
TORSDOF 5
ENDMDL
MODEL 15
REMARK VINA RESULT:    -7.826      3.550      9.532
REMARK INTER + INTRA:         -10.731
REMARK INTER:                 -10.084
REMARK INTRA:                  -0.647
REMARK UNBOUND:                -0.618
REMARK SMILES CCC(=O)n1cc2c3c(cccc31)C1=C[C@@H](C(=O)N(CC)CC)CN(C)[C@@H]1C2
REMARK SMILES IDX 25 1 5 2 27 3 14 4 28 5 16 6 24 7 7 8 9 9 8 10 15 11 13 12
REMARK SMILES IDX 6 13 26 14 10 15 12 16 11 17 17 18 18 19 19 20 20 21 21 22
REMARK SMILES IDX 22 23 23 24 3 25 4 26 2 27 1 28
REMARK H PARENT
ROOT
ATOM      1  N   UNL     1      21.144 -24.263  88.498  1.00  0.00    -0.298 NA
ATOM      2  N   UNL     1      24.520 -27.506  92.301  1.00  0.00    -0.287 N 
ATOM      3  C   UNL     1      21.613 -25.324  89.418  1.00  0.00     0.091 C 
ATOM      4  C   UNL     1      21.466 -26.774  88.896  1.00  0.00    -0.026 C 
ATOM      5  C   UNL     1      23.080 -25.025  89.893  1.00  0.00     0.061 C 
ATOM      6  C   UNL     1      20.779 -25.989  86.633  1.00  0.00     0.116 C 
ATOM      7  C   UNL     1      21.344 -24.618  87.080  1.00  0.00     0.102 C 
ATOM      8  C   UNL     1      23.546 -26.134  90.784  1.00  0.00    -0.019 A 
ATOM      9  C   UNL     1      21.923 -27.831  89.827  1.00  0.00    -0.011 A 
ATOM     10  C   UNL     1      22.951 -27.410  90.694  1.00  0.00     0.011 A 
ATOM     11  C   UNL     1      21.065 -27.064  87.645  1.00  0.00    -0.007 C 
ATOM     12  C   UNL     1      23.540 -28.261  91.630  1.00  0.00     0.056 A 
ATOM     13  C   UNL     1      24.496 -26.211  91.764  1.00  0.00     0.099 A 
ATOM     14  C   UNL     1      19.757 -23.887  88.765  1.00  0.00     0.106 C 
ATOM     15  C   UNL     1      21.478 -29.147  89.913  1.00  0.00     0.009 A 
ATOM     16  C   UNL     1      23.080 -29.591  91.711  1.00  0.00     0.027 A 
ATOM     17  C   UNL     1      22.051 -30.010  90.847  1.00  0.00     0.003 A 
ENDROOT
BRANCH   6  18
ATOM     18  C   UNL     1      19.345 -25.865  86.055  1.00  0.00     0.230 C 
ATOM     19  O   UNL     1      18.359 -26.067  86.769  1.00  0.00    -0.274 OA
ATOM     20  N   UNL     1      19.207 -25.303  84.775  1.00  0.00    -0.343 N 
BRANCH  20  21
ATOM     21  C   UNL     1      19.595 -26.137  83.629  1.00  0.00     0.116 C 
ATOM     22  C   UNL     1      21.098 -26.172  83.371  1.00  0.00     0.027 C 
ENDBRANCH  20  21
BRANCH  20  23
ATOM     23  C   UNL     1      18.016 -24.464  84.604  1.00  0.00     0.116 C 
ATOM     24  C   UNL     1      17.017 -25.011  83.596  1.00  0.00     0.027 C 
ENDBRANCH  20  23
ENDBRANCH   6  18
BRANCH   2  25
ATOM     25  C   UNL     1      25.420 -27.862  93.335  1.00  0.00     0.230 C 
ATOM     26  O   UNL     1      26.624 -27.875  93.090  1.00  0.00    -0.274 OA
BRANCH  25  27
ATOM     27  C   UNL     1      24.829 -28.206  94.674  1.00  0.00     0.097 C 
ATOM     28  C   UNL     1      24.208 -26.989  95.346  1.00  0.00     0.014 C 
ENDBRANCH  25  27
ENDBRANCH   2  25
TORSDOF 5
ENDMDL
MODEL 16
REMARK VINA RESULT:    -7.797      6.088      7.283
REMARK INTER + INTRA:         -10.694
REMARK INTER:                  -9.889
REMARK INTRA:                  -0.806
REMARK UNBOUND:                -0.618
REMARK SMILES CCC(=O)n1cc2c3c(cccc31)C1=C[C@@H](C(=O)N(CC)CC)CN(C)[C@@H]1C2
REMARK SMILES IDX 25 1 5 2 27 3 14 4 28 5 16 6 24 7 7 8 9 9 8 10 15 11 13 12
REMARK SMILES IDX 6 13 26 14 10 15 12 16 11 17 17 18 18 19 19 20 20 21 21 22
REMARK SMILES IDX 22 23 23 24 3 25 4 26 2 27 1 28
REMARK H PARENT
ROOT
ATOM      1  N   UNL     1      23.719 -28.672  90.662  1.00  0.00    -0.298 NA
ATOM      2  N   UNL     1      17.714 -29.056  91.060  1.00  0.00    -0.287 N 
ATOM      3  C   UNL     1      22.288 -28.324  90.811  1.00  0.00     0.091 C 
ATOM      4  C   UNL     1      21.785 -27.168  89.913  1.00  0.00    -0.026 C 
ATOM      5  C   UNL     1      21.396 -29.607  90.656  1.00  0.00     0.061 C 
ATOM      6  C   UNL     1      23.939 -27.075  88.664  1.00  0.00     0.116 C 
ATOM      7  C   UNL     1      24.209 -28.468  89.285  1.00  0.00     0.102 C 
ATOM      8  C   UNL     1      19.954 -29.222  90.765  1.00  0.00    -0.019 A 
ATOM      9  C   UNL     1      20.356 -26.815  90.078  1.00  0.00    -0.011 A 
ATOM     10  C   UNL     1      19.553 -27.900  90.483  1.00  0.00     0.011 A 
ATOM     11  C   UNL     1      22.546 -26.593  88.964  1.00  0.00    -0.007 C 
ATOM     12  C   UNL     1      18.175 -27.785  90.669  1.00  0.00     0.056 A 
ATOM     13  C   UNL     1      18.824 -29.910  91.113  1.00  0.00     0.099 A 
ATOM     14  C   UNL     1      24.553 -27.969  91.636  1.00  0.00     0.106 C 
ATOM     15  C   UNL     1      19.748 -25.582  89.858  1.00  0.00     0.009 A 
ATOM     16  C   UNL     1      17.569 -26.531  90.447  1.00  0.00     0.027 A 
ATOM     17  C   UNL     1      18.372 -25.448  90.046  1.00  0.00     0.003 A 
ENDROOT
BRANCH   6  18
ATOM     18  C   UNL     1      25.131 -26.104  88.876  1.00  0.00     0.230 C 
ATOM     19  O   UNL     1      24.942 -24.960  89.302  1.00  0.00    -0.274 OA
ATOM     20  N   UNL     1      26.427 -26.637  88.786  1.00  0.00    -0.343 N 
BRANCH  20  21
ATOM     21  C   UNL     1      26.930 -26.958  87.443  1.00  0.00     0.116 C 
ATOM     22  C   UNL     1      27.056 -25.747  86.525  1.00  0.00     0.027 C 
ENDBRANCH  20  21
BRANCH  20  23
ATOM     23  C   UNL     1      27.391 -26.056  89.727  1.00  0.00     0.116 C 
ATOM     24  C   UNL     1      27.814 -27.005  90.838  1.00  0.00     0.027 C 
ENDBRANCH  20  23
ENDBRANCH   6  18
BRANCH   2  25
ATOM     25  C   UNL     1      16.410 -29.516  91.371  1.00  0.00     0.230 C 
ATOM     26  O   UNL     1      15.784 -30.133  90.514  1.00  0.00    -0.274 OA
BRANCH  25  27
ATOM     27  C   UNL     1      15.882 -29.210  92.745  1.00  0.00     0.097 C 
ATOM     28  C   UNL     1      14.698 -30.097  93.105  1.00  0.00     0.014 C 
ENDBRANCH  25  27
ENDBRANCH   2  25
TORSDOF 5
ENDMDL
MODEL 17
REMARK VINA RESULT:    -7.749      2.696      9.056
REMARK INTER + INTRA:         -10.632
REMARK INTER:                  -9.891
REMARK INTRA:                  -0.741
REMARK UNBOUND:                -0.618
REMARK SMILES CCC(=O)n1cc2c3c(cccc31)C1=C[C@@H](C(=O)N(CC)CC)CN(C)[C@@H]1C2
REMARK SMILES IDX 25 1 5 2 27 3 14 4 28 5 16 6 24 7 7 8 9 9 8 10 15 11 13 12
REMARK SMILES IDX 6 13 26 14 10 15 12 16 11 17 17 18 18 19 19 20 20 21 21 22
REMARK SMILES IDX 22 23 23 24 3 25 4 26 2 27 1 28
REMARK H PARENT
ROOT
ATOM      1  N   UNL     1      19.428 -26.037  88.837  1.00  0.00    -0.298 NA
ATOM      2  N   UNL     1      25.326 -25.681  90.044  1.00  0.00    -0.287 N 
ATOM      3  C   UNL     1      20.901 -25.998  88.689  1.00  0.00     0.091 C 
ATOM      4  C   UNL     1      21.439 -25.024  87.613  1.00  0.00    -0.026 C 
ATOM      5  C   UNL     1      21.582 -25.754  90.083  1.00  0.00     0.061 C 
ATOM      6  C   UNL     1      19.176 -24.056  87.224  1.00  0.00     0.116 C 
ATOM      7  C   UNL     1      18.799 -24.730  88.567  1.00  0.00     0.102 C 
ATOM      8  C   UNL     1      23.065 -25.674  89.900  1.00  0.00    -0.019 A 
ATOM      9  C   UNL     1      22.911 -25.001  87.460  1.00  0.00    -0.011 A 
ATOM     10  C   UNL     1      23.604 -25.321  88.645  1.00  0.00     0.011 A 
ATOM     11  C   UNL     1      20.648 -24.169  86.939  1.00  0.00    -0.007 C 
ATOM     12  C   UNL     1      24.997 -25.330  88.721  1.00  0.00     0.056 A 
ATOM     13  C   UNL     1      24.126 -25.888  90.737  1.00  0.00     0.099 A 
ATOM     14  C   UNL     1      18.828 -27.096  88.027  1.00  0.00     0.106 C 
ATOM     15  C   UNL     1      23.649 -24.686  86.323  1.00  0.00     0.009 A 
ATOM     16  C   UNL     1      25.735 -25.012  87.563  1.00  0.00     0.027 A 
ATOM     17  C   UNL     1      25.043 -24.696  86.379  1.00  0.00     0.003 A 
ENDROOT
BRANCH   6  18
ATOM     18  C   UNL     1      18.165 -24.400  86.099  1.00  0.00     0.230 C 
ATOM     19  O   UNL     1      16.956 -24.199  86.256  1.00  0.00    -0.274 OA
ATOM     20  N   UNL     1      18.684 -24.729  84.836  1.00  0.00    -0.343 N 
BRANCH  20  21
ATOM     21  C   UNL     1      19.299 -26.055  84.687  1.00  0.00     0.116 C 
ATOM     22  C   UNL     1      20.579 -26.052  83.858  1.00  0.00     0.027 C 
ENDBRANCH  20  21
BRANCH  20  23
ATOM     23  C   UNL     1      17.887 -24.242  83.705  1.00  0.00     0.116 C 
ATOM     24  C   UNL     1      17.041 -25.317  83.041  1.00  0.00     0.027 C 
ENDBRANCH  20  23
ENDBRANCH   6  18
BRANCH   2  25
ATOM     25  C   UNL     1      26.583 -25.834  90.679  1.00  0.00     0.230 C 
ATOM     26  O   UNL     1      27.085 -24.859  91.233  1.00  0.00    -0.274 OA
BRANCH  25  27
ATOM     27  C   UNL     1      27.221 -27.193  90.626  1.00  0.00     0.097 C 
ATOM     28  C   UNL     1      28.447 -27.278  91.524  1.00  0.00     0.014 C 
ENDBRANCH  25  27
ENDBRANCH   2  25
TORSDOF 5
ENDMDL
MODEL 18
REMARK VINA RESULT:    -7.555      3.771     10.372
REMARK INTER + INTRA:         -10.381
REMARK INTER:                  -9.452
REMARK INTRA:                  -0.929
REMARK UNBOUND:                -0.618
REMARK SMILES CCC(=O)n1cc2c3c(cccc31)C1=C[C@@H](C(=O)N(CC)CC)CN(C)[C@@H]1C2
REMARK SMILES IDX 25 1 5 2 27 3 14 4 28 5 16 6 24 7 7 8 9 9 8 10 15 11 13 12
REMARK SMILES IDX 6 13 26 14 10 15 12 16 11 17 17 18 18 19 19 20 20 21 21 22
REMARK SMILES IDX 22 23 23 24 3 25 4 26 2 27 1 28
REMARK H PARENT
ROOT
ATOM      1  N   UNL     1      21.906 -24.214  89.041  1.00  0.00    -0.298 NA
ATOM      2  N   UNL     1      25.742 -26.864  92.865  1.00  0.00    -0.287 N 
ATOM      3  C   UNL     1      22.501 -25.144  90.027  1.00  0.00     0.091 C 
ATOM      4  C   UNL     1      22.384 -26.648  89.682  1.00  0.00    -0.026 C 
ATOM      5  C   UNL     1      23.986 -24.734  90.335  1.00  0.00     0.061 C 
ATOM      6  C   UNL     1      21.473 -26.154  87.416  1.00  0.00     0.116 C 
ATOM      7  C   UNL     1      22.005 -24.720  87.658  1.00  0.00     0.102 C 
ATOM      8  C   UNL     1      24.578 -25.715  91.298  1.00  0.00    -0.019 A 
ATOM      9  C   UNL     1      22.968 -27.572  90.680  1.00  0.00    -0.011 A 
ATOM     10  C   UNL     1      24.042 -27.015  91.402  1.00  0.00     0.011 A 
ATOM     11  C   UNL     1      21.895 -27.095  88.511  1.00  0.00    -0.007 C 
ATOM     12  C   UNL     1      24.748 -27.730  92.370  1.00  0.00     0.056 A 
ATOM     13  C   UNL     1      25.609 -25.641  92.194  1.00  0.00     0.099 A 
ATOM     14  C   UNL     1      20.528 -23.866  89.385  1.00  0.00     0.106 C 
ATOM     15  C   UNL     1      22.597 -28.887  90.949  1.00  0.00     0.009 A 
ATOM     16  C   UNL     1      24.363 -29.059  92.638  1.00  0.00     0.027 A 
ATOM     17  C   UNL     1      23.288 -29.615  91.919  1.00  0.00     0.003 A 
ENDROOT
BRANCH   6  18
ATOM     18  C   UNL     1      19.992 -26.154  86.956  1.00  0.00     0.230 C 
ATOM     19  O   UNL     1      19.120 -26.696  87.642  1.00  0.00    -0.274 OA
ATOM     20  N   UNL     1      19.649 -25.335  85.867  1.00  0.00    -0.343 N 
BRANCH  20  21
ATOM     21  C   UNL     1      20.063 -25.786  84.531  1.00  0.00     0.116 C 
ATOM     22  C   UNL     1      18.948 -25.739  83.491  1.00  0.00     0.027 C 
ENDBRANCH  20  21
BRANCH  20  23
ATOM     23  C   UNL     1      18.328 -24.708  85.970  1.00  0.00     0.116 C 
ATOM     24  C   UNL     1      18.374 -23.230  86.325  1.00  0.00     0.027 C 
ENDBRANCH  20  23
ENDBRANCH   6  18
BRANCH   2  25
ATOM     25  C   UNL     1      26.741 -27.064  93.850  1.00  0.00     0.230 C 
ATOM     26  O   UNL     1      26.394 -27.372  94.987  1.00  0.00    -0.274 OA
BRANCH  25  27
ATOM     27  C   UNL     1      28.171 -26.881  93.426  1.00  0.00     0.097 C 
ATOM     28  C   UNL     1      28.841 -25.738  94.176  1.00  0.00     0.014 C 
ENDBRANCH  25  27
ENDBRANCH   2  25
TORSDOF 5
ENDMDL
MODEL 19
REMARK VINA RESULT:    -7.525      4.403     11.400
REMARK INTER + INTRA:         -10.342
REMARK INTER:                  -9.445
REMARK INTRA:                  -0.897
REMARK UNBOUND:                -0.618
REMARK SMILES CCC(=O)n1cc2c3c(cccc31)C1=C[C@@H](C(=O)N(CC)CC)CN(C)[C@@H]1C2
REMARK SMILES IDX 25 1 5 2 27 3 14 4 28 5 16 6 24 7 7 8 9 9 8 10 15 11 13 12
REMARK SMILES IDX 6 13 26 14 10 15 12 16 11 17 17 18 18 19 19 20 20 21 21 22
REMARK SMILES IDX 22 23 23 24 3 25 4 26 2 27 1 28
REMARK H PARENT
ROOT
ATOM      1  N   UNL     1      23.506 -24.227  89.207  1.00  0.00    -0.298 NA
ATOM      2  N   UNL     1      27.665 -26.224  93.091  1.00  0.00    -0.287 N 
ATOM      3  C   UNL     1      24.161 -24.845  90.383  1.00  0.00     0.091 C 
ATOM      4  C   UNL     1      23.668 -26.266  90.751  1.00  0.00    -0.026 C 
ATOM      5  C   UNL     1      25.723 -24.797  90.225  1.00  0.00     0.061 C 
ATOM      6  C   UNL     1      22.282 -26.423  88.686  1.00  0.00     0.116 C 
ATOM      7  C   UNL     1      23.124 -25.222  88.187  1.00  0.00     0.102 C 
ATOM      8  C   UNL     1      26.358 -25.467  91.403  1.00  0.00    -0.019 A 
ATOM      9  C   UNL     1      24.316 -26.871  91.937  1.00  0.00    -0.011 A 
ATOM     10  C   UNL     1      25.633 -26.418  92.150  1.00  0.00     0.011 A 
ATOM     11  C   UNL     1      22.800 -26.959  89.992  1.00  0.00    -0.007 C 
ATOM     12  C   UNL     1      26.427 -26.886  93.198  1.00  0.00     0.056 A 
ATOM     13  C   UNL     1      27.590 -25.363  91.988  1.00  0.00     0.099 A 
ATOM     14  C   UNL     1      22.369 -23.394  89.594  1.00  0.00     0.106 C 
ATOM     15  C   UNL     1      23.789 -27.821  92.809  1.00  0.00     0.009 A 
ATOM     16  C   UNL     1      25.884 -27.844  94.077  1.00  0.00     0.027 A 
ATOM     17  C   UNL     1      24.567 -28.294  93.865  1.00  0.00     0.003 A 
ENDROOT
BRANCH   6  18
ATOM     18  C   UNL     1      20.760 -26.169  88.530  1.00  0.00     0.230 C 
ATOM     19  O   UNL     1      19.990 -26.358  89.477  1.00  0.00    -0.274 OA
ATOM     20  N   UNL     1      20.326 -25.513  87.367  1.00  0.00    -0.343 N 
BRANCH  20  21
ATOM     21  C   UNL     1      20.323 -26.289  86.119  1.00  0.00     0.116 C 
ATOM     22  C   UNL     1      21.328 -25.796  85.083  1.00  0.00     0.027 C 
ENDBRANCH  20  21
BRANCH  20  23
ATOM     23  C   UNL     1      19.203 -24.591  87.571  1.00  0.00     0.116 C 
ATOM     24  C   UNL     1      19.213 -23.393  86.634  1.00  0.00     0.027 C 
ENDBRANCH  20  23
ENDBRANCH   6  18
BRANCH   2  25
ATOM     25  C   UNL     1      28.839 -26.317  93.880  1.00  0.00     0.230 C 
ATOM     26  O   UNL     1      29.108 -25.395  94.645  1.00  0.00    -0.274 OA
BRANCH  25  27
ATOM     27  C   UNL     1      29.680 -27.552  93.718  1.00  0.00     0.097 C 
ATOM     28  C   UNL     1      29.620 -28.442  94.951  1.00  0.00     0.014 C 
ENDBRANCH  25  27
ENDBRANCH   2  25
TORSDOF 5
ENDMDL
MODEL 20
REMARK VINA RESULT:    -7.430      3.756      6.602
REMARK INTER + INTRA:         -10.220
REMARK INTER:                  -9.471
REMARK INTRA:                  -0.749
REMARK UNBOUND:                -0.618
REMARK SMILES CCC(=O)n1cc2c3c(cccc31)C1=C[C@@H](C(=O)N(CC)CC)CN(C)[C@@H]1C2
REMARK SMILES IDX 25 1 5 2 27 3 14 4 28 5 16 6 24 7 7 8 9 9 8 10 15 11 13 12
REMARK SMILES IDX 6 13 26 14 10 15 12 16 11 17 17 18 18 19 19 20 20 21 21 22
REMARK SMILES IDX 22 23 23 24 3 25 4 26 2 27 1 28
REMARK H PARENT
ROOT
ATOM      1  N   UNL     1      21.505 -29.069  91.399  1.00  0.00    -0.298 NA
ATOM      2  N   UNL     1      19.768 -25.574  86.802  1.00  0.00    -0.287 N 
ATOM      3  C   UNL     1      21.305 -27.905  90.506  1.00  0.00     0.091 C 
ATOM      4  C   UNL     1      22.585 -27.116  90.140  1.00  0.00    -0.026 C 
ATOM      5  C   UNL     1      20.502 -28.333  89.226  1.00  0.00     0.061 C 
ATOM      6  C   UNL     1      24.054 -28.811  91.226  1.00  0.00     0.116 C 
ATOM      7  C   UNL     1      22.807 -29.729  91.182  1.00  0.00     0.102 C 
ATOM      8  C   UNL     1      20.352 -27.150  88.320  1.00  0.00    -0.019 A 
ATOM      9  C   UNL     1      22.375 -25.945  89.259  1.00  0.00    -0.011 A 
ATOM     10  C   UNL     1      21.264 -26.078  88.403  1.00  0.00     0.011 A 
ATOM     11  C   UNL     1      23.820 -27.520  90.491  1.00  0.00    -0.007 C 
ATOM     12  C   UNL     1      20.909 -25.097  87.476  1.00  0.00     0.056 A 
ATOM     13  C   UNL     1      19.451 -26.827  87.343  1.00  0.00     0.099 A 
ATOM     14  C   UNL     1      21.314 -28.715  92.804  1.00  0.00     0.106 C 
ATOM     15  C   UNL     1      23.145 -24.788  89.175  1.00  0.00     0.009 A 
ATOM     16  C   UNL     1      21.693 -23.927  87.402  1.00  0.00     0.027 A 
ATOM     17  C   UNL     1      22.800 -23.794  88.259  1.00  0.00     0.003 A 
ENDROOT
BRANCH   6  18
ATOM     18  C   UNL     1      24.690 -28.765  92.641  1.00  0.00     0.230 C 
ATOM     19  O   UNL     1      24.791 -29.791  93.319  1.00  0.00    -0.274 OA
ATOM     20  N   UNL     1      25.339 -27.579  93.023  1.00  0.00    -0.343 N 
BRANCH  20  21
ATOM     21  C   UNL     1      24.492 -26.429  93.368  1.00  0.00     0.116 C 
ATOM     22  C   UNL     1      24.904 -25.131  92.683  1.00  0.00     0.027 C 
ENDBRANCH  20  21
BRANCH  20  23
ATOM     23  C   UNL     1      26.540 -27.780  93.841  1.00  0.00     0.116 C 
ATOM     24  C   UNL     1      27.810 -27.222  93.219  1.00  0.00     0.027 C 
ENDBRANCH  20  23
ENDBRANCH   6  18
BRANCH   2  25
ATOM     25  C   UNL     1      18.995 -24.998  85.764  1.00  0.00     0.230 C 
ATOM     26  O   UNL     1      19.238 -25.317  84.603  1.00  0.00    -0.274 OA
BRANCH  25  27
ATOM     27  C   UNL     1      17.922 -24.025  86.163  1.00  0.00     0.097 C 
ATOM     28  C   UNL     1      18.465 -22.609  86.299  1.00  0.00     0.014 C 
ENDBRANCH  25  27
ENDBRANCH   2  25
TORSDOF 5
ENDMDL
