MODEL 1
REMARK VINA RESULT:    -6.764      0.000      0.000
REMARK INTER + INTRA:          -9.167
REMARK INTER:                  -8.741
REMARK INTRA:                  -0.427
REMARK UNBOUND:                -0.427
REMARK SMILES CCC(=O)n1cc2c3c(cccc31)C1=C[C@@H](C(=O)N(CC)CC)CN(C)[C@@H]1C2
REMARK SMILES IDX 25 1 5 2 27 3 14 4 28 5 16 6 24 7 7 8 9 9 8 10 15 11 13 12
REMARK SMILES IDX 6 13 26 14 10 15 12 16 11 17 17 18 18 19 19 20 20 21 21 22
REMARK SMILES IDX 22 23 23 24 3 25 4 26 2 27 1 28
REMARK H PARENT
ROOT
ATOM      1  N   UNL     1     101.176 125.363 113.957  1.00  0.00    -0.298 NA
ATOM      2  N   UNL     1      98.225 126.712 119.040  1.00  0.00    -0.287 N 
ATOM      3  C   UNL     1     100.153 125.412 115.026  1.00  0.00     0.091 C 
ATOM      4  C   UNL     1      99.657 124.038 115.540  1.00  0.00    -0.026 C 
ATOM      5  C   UNL     1     100.641 126.328 116.205  1.00  0.00     0.061 C 
ATOM      6  C   UNL     1     101.375 122.816 114.212  1.00  0.00     0.116 C 
ATOM      7  C   UNL     1     102.069 124.195 114.083  1.00  0.00     0.102 C 
ATOM      8  C   UNL     1      99.612 126.324 117.292  1.00  0.00    -0.019 A 
ATOM      9  C   UNL     1      98.624 124.095 116.598  1.00  0.00    -0.011 A 
ATOM     10  C   UNL     1      98.706 125.249 117.403  1.00  0.00     0.011 A 
ATOM     11  C   UNL     1     100.198 122.871 115.146  1.00  0.00    -0.007 C 
ATOM     12  C   UNL     1      97.842 125.481 118.473  1.00  0.00     0.056 A 
ATOM     13  C   UNL     1      99.305 127.203 118.294  1.00  0.00     0.099 A 
ATOM     14  C   UNL     1     100.574 125.434 112.626  1.00  0.00     0.106 C 
ATOM     15  C   UNL     1      97.639 123.153 116.885  1.00  0.00     0.009 A 
ATOM     16  C   UNL     1      96.846 124.523 118.753  1.00  0.00     0.027 A 
ATOM     17  C   UNL     1      96.762 123.373 117.947  1.00  0.00     0.003 A 
ENDROOT
BRANCH   6  18
ATOM     18  C   UNL     1     101.209 122.120 112.835  1.00  0.00     0.230 C 
ATOM     19  O   UNL     1     101.858 122.499 111.856  1.00  0.00    -0.274 OA
ATOM     20  N   UNL     1     100.477 120.922 112.796  1.00  0.00    -0.343 N 
BRANCH  20  21
ATOM     21  C   UNL     1      99.016 121.022 112.921  1.00  0.00     0.116 C 
ATOM     22  C   UNL     1      98.389 119.905 113.748  1.00  0.00     0.027 C 
ENDBRANCH  20  21
BRANCH  20  23
ATOM     23  C   UNL     1     100.989 119.926 111.849  1.00  0.00     0.116 C 
ATOM     24  C   UNL     1     100.250 119.903 110.520  1.00  0.00     0.027 C 
ENDBRANCH  20  23
ENDBRANCH   6  18
BRANCH   2  25
ATOM     25  C   UNL     1      97.703 127.427 120.146  1.00  0.00     0.230 C 
ATOM     26  O   UNL     1      97.997 127.055 121.280  1.00  0.00    -0.274 OA
BRANCH  25  27
ATOM     27  C   UNL     1      96.814 128.602 119.850  1.00  0.00     0.097 C 
ATOM     28  C   UNL     1      97.556 129.923 119.997  1.00  0.00     0.014 C 
ENDBRANCH  25  27
ENDBRANCH   2  25
TORSDOF 5
ENDMDL
MODEL 2
REMARK VINA RESULT:    -6.748      3.591      7.405
REMARK INTER + INTRA:          -9.147
REMARK INTER:                  -8.735
REMARK INTRA:                  -0.412
REMARK UNBOUND:                -0.427
REMARK SMILES CCC(=O)n1cc2c3c(cccc31)C1=C[C@@H](C(=O)N(CC)CC)CN(C)[C@@H]1C2
REMARK SMILES IDX 25 1 5 2 27 3 14 4 28 5 16 6 24 7 7 8 9 9 8 10 15 11 13 12
REMARK SMILES IDX 6 13 26 14 10 15 12 16 11 17 17 18 18 19 19 20 20 21 21 22
REMARK SMILES IDX 22 23 23 24 3 25 4 26 2 27 1 28
REMARK H PARENT
ROOT
ATOM      1  N   UNL     1      96.784 122.927 119.196  1.00  0.00    -0.298 NA
ATOM      2  N   UNL     1     100.397 124.435 114.609  1.00  0.00    -0.287 N 
ATOM      3  C   UNL     1      97.759 122.858 118.084  1.00  0.00     0.091 C 
ATOM      4  C   UNL     1      97.491 121.759 117.027  1.00  0.00    -0.026 C 
ATOM      5  C   UNL     1      97.927 124.272 117.419  1.00  0.00     0.061 C 
ATOM      6  C   UNL     1      95.286 121.191 118.040  1.00  0.00     0.116 C 
ATOM      7  C   UNL     1      95.421 122.548 118.776  1.00  0.00     0.102 C 
ATOM      8  C   UNL     1      98.881 124.166 116.270  1.00  0.00    -0.019 A 
ATOM      9  C   UNL     1      98.477 121.687 115.926  1.00  0.00    -0.011 A 
ATOM     10  C   UNL     1      99.084 122.925 115.633  1.00  0.00     0.011 A 
ATOM     11  C   UNL     1      96.383 120.995 117.031  1.00  0.00    -0.007 C 
ATOM     12  C   UNL     1     100.022 123.078 114.612  1.00  0.00     0.056 A 
ATOM     13  C   UNL     1      99.686 125.071 115.635  1.00  0.00     0.099 A 
ATOM     14  C   UNL     1      97.223 122.146 120.352  1.00  0.00     0.106 C 
ATOM     15  C   UNL     1      98.833 120.576 115.166  1.00  0.00     0.009 A 
ATOM     16  C   UNL     1     100.378 121.946 113.850  1.00  0.00     0.027 A 
ATOM     17  C   UNL     1      99.774 120.710 114.145  1.00  0.00     0.003 A 
ENDROOT
BRANCH   6  18
ATOM     18  C   UNL     1      94.948 120.034 119.016  1.00  0.00     0.230 C 
ATOM     19  O   UNL     1      95.432 118.910 118.851  1.00  0.00    -0.274 OA
ATOM     20  N   UNL     1      94.266 120.359 120.200  1.00  0.00    -0.343 N 
BRANCH  20  21
ATOM     21  C   UNL     1      92.836 120.679 120.087  1.00  0.00     0.116 C 
ATOM     22  C   UNL     1      92.496 122.122 120.444  1.00  0.00     0.027 C 
ENDBRANCH  20  21
BRANCH  20  23
ATOM     23  C   UNL     1      94.674 119.577 121.372  1.00  0.00     0.116 C 
ATOM     24  C   UNL     1      93.563 118.719 121.957  1.00  0.00     0.027 C 
ENDBRANCH  20  23
ENDBRANCH   6  18
BRANCH   2  25
ATOM     25  C   UNL     1     101.305 125.146 113.786  1.00  0.00     0.230 C 
ATOM     26  O   UNL     1     101.682 124.626 112.739  1.00  0.00    -0.274 OA
BRANCH  25  27
ATOM     27  C   UNL     1     101.748 126.502 114.261  1.00  0.00     0.097 C 
ATOM     28  C   UNL     1     102.983 126.414 115.146  1.00  0.00     0.014 C 
ENDBRANCH  25  27
ENDBRANCH   2  25
TORSDOF 5
ENDMDL
MODEL 3
REMARK VINA RESULT:    -6.719      3.080      5.394
REMARK INTER + INTRA:          -9.110
REMARK INTER:                  -8.797
REMARK INTRA:                  -0.313
REMARK UNBOUND:                -0.427
REMARK SMILES CCC(=O)n1cc2c3c(cccc31)C1=C[C@@H](C(=O)N(CC)CC)CN(C)[C@@H]1C2
REMARK SMILES IDX 25 1 5 2 27 3 14 4 28 5 16 6 24 7 7 8 9 9 8 10 15 11 13 12
REMARK SMILES IDX 6 13 26 14 10 15 12 16 11 17 17 18 18 19 19 20 20 21 21 22
REMARK SMILES IDX 22 23 23 24 3 25 4 26 2 27 1 28
REMARK H PARENT
ROOT
ATOM      1  N   UNL     1      99.104 121.143 114.561  1.00  0.00    -0.298 NA
ATOM      2  N   UNL     1      95.357 120.959 119.282  1.00  0.00    -0.287 N 
ATOM      3  C   UNL     1      98.464 121.415 115.867  1.00  0.00     0.091 C 
ATOM      4  C   UNL     1      98.195 122.906 116.183  1.00  0.00    -0.026 C 
ATOM      5  C   UNL     1      97.165 120.546 116.029  1.00  0.00     0.061 C 
ATOM      6  C   UNL     1      98.862 123.609 113.887  1.00  0.00     0.116 C 
ATOM      7  C   UNL     1      98.701 122.112 113.523  1.00  0.00     0.102 C 
ATOM      8  C   UNL     1      96.512 120.872 117.336  1.00  0.00    -0.019 A 
ATOM      9  C   UNL     1      97.568 123.172 117.497  1.00  0.00    -0.011 A 
ATOM     10  C   UNL     1      96.757 122.115 117.956  1.00  0.00     0.011 A 
ATOM     11  C   UNL     1      98.403 123.892 115.290  1.00  0.00    -0.007 C 
ATOM     12  C   UNL     1      96.054 122.176 119.161  1.00  0.00     0.056 A 
ATOM     13  C   UNL     1      95.660 120.184 118.155  1.00  0.00     0.099 A 
ATOM     14  C   UNL     1     100.559 121.058 114.676  1.00  0.00     0.106 C 
ATOM     15  C   UNL     1      97.673 124.318 118.280  1.00  0.00     0.009 A 
ATOM     16  C   UNL     1      96.170 123.340 119.947  1.00  0.00     0.027 A 
ATOM     17  C   UNL     1      96.983 124.394 119.490  1.00  0.00     0.003 A 
ENDROOT
BRANCH   6  18
ATOM     18  C   UNL     1     100.227 124.176 113.415  1.00  0.00     0.230 C 
ATOM     19  O   UNL     1     100.572 124.086 112.233  1.00  0.00    -0.274 OA
ATOM     20  N   UNL     1     100.942 124.983 114.316  1.00  0.00    -0.343 N 
BRANCH  20  21
ATOM     21  C   UNL     1     101.612 124.308 115.437  1.00  0.00     0.116 C 
ATOM     22  C   UNL     1     102.812 123.464 115.022  1.00  0.00     0.027 C 
ENDBRANCH  20  21
BRANCH  20  23
ATOM     23  C   UNL     1     101.664 126.098 113.694  1.00  0.00     0.116 C 
ATOM     24  C   UNL     1     102.307 127.048 114.692  1.00  0.00     0.027 C 
ENDBRANCH  20  23
ENDBRANCH   6  18
BRANCH   2  25
ATOM     25  C   UNL     1      94.487 120.485 120.295  1.00  0.00     0.230 C 
ATOM     26  O   UNL     1      93.584 119.713 119.982  1.00  0.00    -0.274 OA
BRANCH  25  27
ATOM     27  C   UNL     1      94.735 120.968 121.697  1.00  0.00     0.097 C 
ATOM     28  C   UNL     1      93.563 121.780 122.230  1.00  0.00     0.014 C 
ENDBRANCH  25  27
ENDBRANCH   2  25
TORSDOF 5
ENDMDL
MODEL 4
REMARK VINA RESULT:    -6.364      2.721      4.942
REMARK INTER + INTRA:          -8.651
REMARK INTER:                  -8.407
REMARK INTRA:                  -0.243
REMARK UNBOUND:                -0.427
REMARK SMILES CCC(=O)n1cc2c3c(cccc31)C1=C[C@@H](C(=O)N(CC)CC)CN(C)[C@@H]1C2
REMARK SMILES IDX 25 1 5 2 27 3 14 4 28 5 16 6 24 7 7 8 9 9 8 10 15 11 13 12
REMARK SMILES IDX 6 13 26 14 10 15 12 16 11 17 17 18 18 19 19 20 20 21 21 22
REMARK SMILES IDX 22 23 23 24 3 25 4 26 2 27 1 28
REMARK H PARENT
ROOT
ATOM      1  N   UNL     1      96.800 122.772 120.078  1.00  0.00    -0.298 NA
ATOM      2  N   UNL     1      96.983 128.745 120.896  1.00  0.00    -0.287 N 
ATOM      3  C   UNL     1      97.221 124.192 120.040  1.00  0.00     0.091 C 
ATOM      4  C   UNL     1      97.584 124.744 118.641  1.00  0.00    -0.026 C 
ATOM      5  C   UNL     1      96.156 125.095 120.760  1.00  0.00     0.061 C 
ATOM      6  C   UNL     1      96.795 122.668 117.512  1.00  0.00     0.116 C 
ATOM      7  C   UNL     1      96.082 122.365 118.854  1.00  0.00     0.102 C 
ATOM      8  C   UNL     1      96.582 126.527 120.669  1.00  0.00    -0.019 A 
ATOM      9  C   UNL     1      98.019 126.159 118.613  1.00  0.00    -0.011 A 
ATOM     10  C   UNL     1      97.455 126.940 119.642  1.00  0.00     0.011 A 
ATOM     11  C   UNL     1      97.413 124.038 117.508  1.00  0.00    -0.007 C 
ATOM     12  C   UNL     1      97.715 128.304 119.777  1.00  0.00     0.056 A 
ATOM     13  C   UNL     1      96.305 127.636 121.420  1.00  0.00     0.099 A 
ATOM     14  C   UNL     1      97.922 121.880 120.361  1.00  0.00     0.106 C 
ATOM     15  C   UNL     1      98.869 126.776 117.699  1.00  0.00     0.009 A 
ATOM     16  C   UNL     1      98.580 128.919 118.849  1.00  0.00     0.027 A 
ATOM     17  C   UNL     1      99.145 128.138 117.823  1.00  0.00     0.003 A 
ENDROOT
BRANCH   6  18
ATOM     18  C   UNL     1      97.639 121.463 117.019  1.00  0.00     0.230 C 
ATOM     19  O   UNL     1      97.661 120.406 117.658  1.00  0.00    -0.274 OA
ATOM     20  N   UNL     1      98.185 121.537 115.727  1.00  0.00    -0.343 N 
BRANCH  20  21
ATOM     21  C   UNL     1      99.341 122.423 115.536  1.00  0.00     0.116 C 
ATOM     22  C   UNL     1      99.150 123.457 114.431  1.00  0.00     0.027 C 
ENDBRANCH  20  21
BRANCH  20  23
ATOM     23  C   UNL     1      98.206 120.262 115.001  1.00  0.00     0.116 C 
ATOM     24  C   UNL     1      99.408 120.094 114.086  1.00  0.00     0.027 C 
ENDBRANCH  20  23
ENDBRANCH   6  18
BRANCH   2  25
ATOM     25  C   UNL     1      96.868 130.029 121.484  1.00  0.00     0.230 C 
ATOM     26  O   UNL     1      95.762 130.561 121.524  1.00  0.00    -0.274 OA
BRANCH  25  27
ATOM     27  C   UNL     1      98.125 130.655 122.020  1.00  0.00     0.097 C 
ATOM     28  C   UNL     1      98.528 131.886 121.220  1.00  0.00     0.014 C 
ENDBRANCH  25  27
ENDBRANCH   2  25
TORSDOF 5
ENDMDL
MODEL 5
REMARK VINA RESULT:    -6.330      2.012      9.009
REMARK INTER + INTRA:          -8.607
REMARK INTER:                  -7.782
REMARK INTRA:                  -0.825
REMARK UNBOUND:                -0.427
REMARK SMILES CCC(=O)n1cc2c3c(cccc31)C1=C[C@@H](C(=O)N(CC)CC)CN(C)[C@@H]1C2
REMARK SMILES IDX 25 1 5 2 27 3 14 4 28 5 16 6 24 7 7 8 9 9 8 10 15 11 13 12
REMARK SMILES IDX 6 13 26 14 10 15 12 16 11 17 17 18 18 19 19 20 20 21 21 22
REMARK SMILES IDX 22 23 23 24 3 25 4 26 2 27 1 28
REMARK H PARENT
ROOT
ATOM      1  N   UNL     1      96.813 126.982 118.532  1.00  0.00    -0.298 NA
ATOM      2  N   UNL     1     100.761 124.227 114.900  1.00  0.00    -0.287 N 
ATOM      3  C   UNL     1      97.937 126.724 117.604  1.00  0.00     0.091 C 
ATOM      4  C   UNL     1      99.303 127.317 118.026  1.00  0.00    -0.026 C 
ATOM      5  C   UNL     1      98.045 125.188 117.292  1.00  0.00     0.061 C 
ATOM      6  C   UNL     1      98.420 128.007 120.252  1.00  0.00     0.116 C 
ATOM      7  C   UNL     1      97.248 127.043 119.941  1.00  0.00     0.102 C 
ATOM      8  C   UNL     1      99.215 124.949 116.390  1.00  0.00    -0.019 A 
ATOM      9  C   UNL     1     100.418 127.068 117.086  1.00  0.00    -0.011 A 
ATOM     10  C   UNL     1     100.276 125.876 116.349  1.00  0.00     0.011 A 
ATOM     11  C   UNL     1      99.504 127.918 119.214  1.00  0.00    -0.007 C 
ATOM     12  C   UNL     1     101.232 125.444 115.428  1.00  0.00     0.056 A 
ATOM     13  C   UNL     1      99.526 123.954 115.504  1.00  0.00     0.099 A 
ATOM     14  C   UNL     1      96.059 128.175 118.154  1.00  0.00     0.106 C 
ATOM     15  C   UNL     1     101.556 127.845 116.883  1.00  0.00     0.009 A 
ATOM     16  C   UNL     1     102.379 126.239 115.227  1.00  0.00     0.027 A 
ATOM     17  C   UNL     1     102.519 127.431 115.961  1.00  0.00     0.003 A 
ENDROOT
BRANCH   6  18
ATOM     18  C   UNL     1      97.917 129.407 120.694  1.00  0.00     0.230 C 
ATOM     19  O   UNL     1      98.055 130.387 119.955  1.00  0.00    -0.274 OA
ATOM     20  N   UNL     1      97.113 129.476 121.843  1.00  0.00    -0.343 N 
BRANCH  20  21
ATOM     21  C   UNL     1      97.779 129.307 123.142  1.00  0.00     0.116 C 
ATOM     22  C   UNL     1      98.520 130.550 123.622  1.00  0.00     0.027 C 
ENDBRANCH  20  21
BRANCH  20  23
ATOM     23  C   UNL     1      96.044 130.478 121.778  1.00  0.00     0.116 C 
ATOM     24  C   UNL     1      94.816 130.123 122.603  1.00  0.00     0.027 C 
ENDBRANCH  20  23
ENDBRANCH   6  18
BRANCH   2  25
ATOM     25  C   UNL     1     101.326 123.351 113.939  1.00  0.00     0.230 C 
ATOM     26  O   UNL     1     102.463 122.926 114.127  1.00  0.00    -0.274 OA
BRANCH  25  27
ATOM     27  C   UNL     1     100.482 123.003 112.745  1.00  0.00     0.097 C 
ATOM     28  C   UNL     1     100.853 121.644 112.168  1.00  0.00     0.014 C 
ENDBRANCH  25  27
ENDBRANCH   2  25
TORSDOF 5
ENDMDL
MODEL 6
REMARK VINA RESULT:    -6.313      1.741      2.357
REMARK INTER + INTRA:          -8.585
REMARK INTER:                  -8.411
REMARK INTRA:                  -0.175
REMARK UNBOUND:                -0.427
REMARK SMILES CCC(=O)n1cc2c3c(cccc31)C1=C[C@@H](C(=O)N(CC)CC)CN(C)[C@@H]1C2
REMARK SMILES IDX 25 1 5 2 27 3 14 4 28 5 16 6 24 7 7 8 9 9 8 10 15 11 13 12
REMARK SMILES IDX 6 13 26 14 10 15 12 16 11 17 17 18 18 19 19 20 20 21 21 22
REMARK SMILES IDX 22 23 23 24 3 25 4 26 2 27 1 28
REMARK H PARENT
ROOT
ATOM      1  N   UNL     1      99.255 123.719 114.434  1.00  0.00    -0.298 NA
ATOM      2  N   UNL     1      97.691 126.239 119.685  1.00  0.00    -0.287 N 
ATOM      3  C   UNL     1      98.533 124.047 115.685  1.00  0.00     0.091 C 
ATOM      4  C   UNL     1      98.157 122.838 116.576  1.00  0.00    -0.026 C 
ATOM      5  C   UNL     1      99.316 125.141 116.495  1.00  0.00     0.061 C 
ATOM      6  C   UNL     1      99.468 121.264 115.157  1.00  0.00     0.116 C 
ATOM      7  C   UNL     1     100.131 122.540 114.582  1.00  0.00     0.102 C 
ATOM      8  C   UNL     1      98.590 125.422 117.774  1.00  0.00    -0.019 A 
ATOM      9  C   UNL     1      97.422 123.172 117.817  1.00  0.00    -0.011 A 
ATOM     10  C   UNL     1      97.723 124.454 118.320  1.00  0.00     0.011 A 
ATOM     11  C   UNL     1      98.562 121.582 116.315  1.00  0.00    -0.007 C 
ATOM     12  C   UNL     1      97.157 124.950 119.495  1.00  0.00     0.056 A 
ATOM     13  C   UNL     1      98.559 126.499 118.616  1.00  0.00     0.099 A 
ATOM     14  C   UNL     1      98.341 123.568 113.304  1.00  0.00     0.106 C 
ATOM     15  C   UNL     1      96.524 122.375 118.521  1.00  0.00     0.009 A 
ATOM     16  C   UNL     1      96.246 124.136 120.199  1.00  0.00     0.027 A 
ATOM     17  C   UNL     1      95.944 122.858 119.694  1.00  0.00     0.003 A 
ENDROOT
BRANCH   6  18
ATOM     18  C   UNL     1      98.950 120.324 114.036  1.00  0.00     0.230 C 
ATOM     19  O   UNL     1      98.050 119.510 114.262  1.00  0.00    -0.274 OA
ATOM     20  N   UNL     1      99.375 120.583 112.722  1.00  0.00    -0.343 N 
BRANCH  20  21
ATOM     21  C   UNL     1     100.759 120.227 112.381  1.00  0.00     0.116 C 
ATOM     22  C   UNL     1     101.585 121.394 111.851  1.00  0.00     0.027 C 
ENDBRANCH  20  21
BRANCH  20  23
ATOM     23  C   UNL     1      98.360 120.336 111.694  1.00  0.00     0.116 C 
ATOM     24  C   UNL     1      98.886 119.595 110.474  1.00  0.00     0.027 C 
ENDBRANCH  20  23
ENDBRANCH   6  18
BRANCH   2  25
ATOM     25  C   UNL     1      97.474 127.191 120.712  1.00  0.00     0.230 C 
ATOM     26  O   UNL     1      98.318 127.304 121.598  1.00  0.00    -0.274 OA
BRANCH  25  27
ATOM     27  C   UNL     1      96.212 128.004 120.642  1.00  0.00     0.097 C 
ATOM     28  C   UNL     1      95.344 127.806 121.877  1.00  0.00     0.014 C 
ENDBRANCH  25  27
ENDBRANCH   2  25
TORSDOF 5
ENDMDL
MODEL 7
REMARK VINA RESULT:    -6.194      1.978      8.005
REMARK INTER + INTRA:          -8.431
REMARK INTER:                  -7.749
REMARK INTRA:                  -0.682
REMARK UNBOUND:                -0.427
REMARK SMILES CCC(=O)n1cc2c3c(cccc31)C1=C[C@@H](C(=O)N(CC)CC)CN(C)[C@@H]1C2
REMARK SMILES IDX 25 1 5 2 27 3 14 4 28 5 16 6 24 7 7 8 9 9 8 10 15 11 13 12
REMARK SMILES IDX 6 13 26 14 10 15 12 16 11 17 17 18 18 19 19 20 20 21 21 22
REMARK SMILES IDX 22 23 23 24 3 25 4 26 2 27 1 28
REMARK H PARENT
ROOT
ATOM      1  N   UNL     1      99.832 127.263 117.499  1.00  0.00    -0.298 NA
ATOM      2  N   UNL     1      99.066 121.811 115.038  1.00  0.00    -0.287 N 
ATOM      3  C   UNL     1      99.460 125.844 117.295  1.00  0.00     0.091 C 
ATOM      4  C   UNL     1      98.002 125.476 117.662  1.00  0.00    -0.026 C 
ATOM      5  C   UNL     1      99.821 125.391 115.835  1.00  0.00     0.061 C 
ATOM      6  C   UNL     1      97.394 127.864 118.035  1.00  0.00     0.116 C 
ATOM      7  C   UNL     1      98.700 128.181 117.266  1.00  0.00     0.102 C 
ATOM      8  C   UNL     1      99.395 123.969 115.641  1.00  0.00    -0.019 A 
ATOM      9  C   UNL     1      97.642 124.053 117.470  1.00  0.00    -0.011 A 
ATOM     10  C   UNL     1      98.376 123.421 116.447  1.00  0.00     0.011 A 
ATOM     11  C   UNL     1      97.084 126.392 118.020  1.00  0.00    -0.007 C 
ATOM     12  C   UNL     1      98.170 122.088 116.088  1.00  0.00     0.056 A 
ATOM     13  C   UNL     1      99.801 122.977 114.791  1.00  0.00     0.099 A 
ATOM     14  C   UNL     1     100.437 127.482 118.811  1.00  0.00     0.106 C 
ATOM     15  C   UNL     1      96.676 123.315 118.149  1.00  0.00     0.009 A 
ATOM     16  C   UNL     1      97.193 121.348 116.785  1.00  0.00     0.027 A 
ATOM     17  C   UNL     1      96.462 121.979 117.809  1.00  0.00     0.003 A 
ENDROOT
BRANCH   6  18
ATOM     18  C   UNL     1      97.311 128.634 119.379  1.00  0.00     0.230 C 
ATOM     19  O   UNL     1      97.532 129.848 119.424  1.00  0.00    -0.274 OA
ATOM     20  N   UNL     1      96.763 127.959 120.483  1.00  0.00    -0.343 N 
BRANCH  20  21
ATOM     21  C   UNL     1      97.596 126.933 121.125  1.00  0.00     0.116 C 
ATOM     22  C   UNL     1      98.673 127.498 122.045  1.00  0.00     0.027 C 
ENDBRANCH  20  21
BRANCH  20  23
ATOM     23  C   UNL     1      95.956 128.802 121.372  1.00  0.00     0.116 C 
ATOM     24  C   UNL     1      94.868 128.045 122.118  1.00  0.00     0.027 C 
ENDBRANCH  20  23
ENDBRANCH   6  18
BRANCH   2  25
ATOM     25  C   UNL     1      99.283 120.626 114.292  1.00  0.00     0.230 C 
ATOM     26  O   UNL     1      99.454 119.571 114.899  1.00  0.00    -0.274 OA
BRANCH  25  27
ATOM     27  C   UNL     1      99.291 120.747 112.794  1.00  0.00     0.097 C 
ATOM     28  C   UNL     1     100.591 120.232 112.193  1.00  0.00     0.014 C 
ENDBRANCH  25  27
ENDBRANCH   2  25
TORSDOF 5
ENDMDL
MODEL 8
REMARK VINA RESULT:    -6.180      3.598      7.630
REMARK INTER + INTRA:          -8.413
REMARK INTER:                  -7.719
REMARK INTRA:                  -0.694
REMARK UNBOUND:                -0.427
REMARK SMILES CCC(=O)n1cc2c3c(cccc31)C1=C[C@@H](C(=O)N(CC)CC)CN(C)[C@@H]1C2
REMARK SMILES IDX 25 1 5 2 27 3 14 4 28 5 16 6 24 7 7 8 9 9 8 10 15 11 13 12
REMARK SMILES IDX 6 13 26 14 10 15 12 16 11 17 17 18 18 19 19 20 20 21 21 22
REMARK SMILES IDX 22 23 23 24 3 25 4 26 2 27 1 28
REMARK H PARENT
ROOT
ATOM      1  N   UNL     1      96.379 120.303 117.610  1.00  0.00    -0.298 NA
ATOM      2  N   UNL     1     100.037 124.574 115.432  1.00  0.00    -0.287 N 
ATOM      3  C   UNL     1      96.965 121.616 117.256  1.00  0.00     0.091 C 
ATOM      4  C   UNL     1      97.077 122.632 118.419  1.00  0.00    -0.026 C 
ATOM      5  C   UNL     1      98.340 121.419 116.524  1.00  0.00     0.061 C 
ATOM      6  C   UNL     1      96.386 120.928 120.100  1.00  0.00     0.116 C 
ATOM      7  C   UNL     1      96.703 119.894 118.991  1.00  0.00     0.102 C 
ATOM      8  C   UNL     1      98.932 122.760 116.219  1.00  0.00    -0.019 A 
ATOM      9  C   UNL     1      97.650 123.948 118.055  1.00  0.00    -0.011 A 
ATOM     10  C   UNL     1      98.554 123.888 116.975  1.00  0.00     0.011 A 
ATOM     11  C   UNL     1      96.789 122.319 119.695  1.00  0.00    -0.007 C 
ATOM     12  C   UNL     1      99.224 125.013 116.494  1.00  0.00     0.056 A 
ATOM     13  C   UNL     1      99.834 123.195 115.286  1.00  0.00     0.099 A 
ATOM     14  C   UNL     1      94.938 120.267 117.366  1.00  0.00     0.106 C 
ATOM     15  C   UNL     1      97.417 125.180 118.659  1.00  0.00     0.009 A 
ATOM     16  C   UNL     1      98.978 126.257 117.111  1.00  0.00     0.027 A 
ATOM     17  C   UNL     1      98.073 126.317 118.186  1.00  0.00     0.003 A 
ENDROOT
BRANCH   6  18
ATOM     18  C   UNL     1      94.981 120.703 120.718  1.00  0.00     0.230 C 
ATOM     19  O   UNL     1      94.473 119.578 120.734  1.00  0.00    -0.274 OA
ATOM     20  N   UNL     1      94.415 121.761 121.448  1.00  0.00    -0.343 N 
BRANCH  20  21
ATOM     21  C   UNL     1      93.895 122.904 120.684  1.00  0.00     0.116 C 
ATOM     22  C   UNL     1      92.869 122.521 119.622  1.00  0.00     0.027 C 
ENDBRANCH  20  21
BRANCH  20  23
ATOM     23  C   UNL     1      93.636 121.345 122.619  1.00  0.00     0.116 C 
ATOM     24  C   UNL     1      92.980 122.497 123.364  1.00  0.00     0.027 C 
ENDBRANCH  20  23
ENDBRANCH   6  18
BRANCH   2  25
ATOM     25  C   UNL     1     100.930 125.284 114.591  1.00  0.00     0.230 C 
ATOM     26  O   UNL     1     100.560 125.585 113.459  1.00  0.00    -0.274 OA
BRANCH  25  27
ATOM     27  C   UNL     1     102.284 125.619 115.152  1.00  0.00     0.097 C 
ATOM     28  C   UNL     1     102.412 127.102 115.470  1.00  0.00     0.014 C 
ENDBRANCH  25  27
ENDBRANCH   2  25
TORSDOF 5
ENDMDL
MODEL 9
REMARK VINA RESULT:    -6.151      4.049      8.793
REMARK INTER + INTRA:          -8.376
REMARK INTER:                  -7.923
REMARK INTRA:                  -0.453
REMARK UNBOUND:                -0.427
REMARK SMILES CCC(=O)n1cc2c3c(cccc31)C1=C[C@@H](C(=O)N(CC)CC)CN(C)[C@@H]1C2
REMARK SMILES IDX 25 1 5 2 27 3 14 4 28 5 16 6 24 7 7 8 9 9 8 10 15 11 13 12
REMARK SMILES IDX 6 13 26 14 10 15 12 16 11 17 17 18 18 19 19 20 20 21 21 22
REMARK SMILES IDX 22 23 23 24 3 25 4 26 2 27 1 28
REMARK H PARENT
ROOT
ATOM      1  N   UNL     1      98.064 126.609 118.271  1.00  0.00    -0.298 NA
ATOM      2  N   UNL     1      96.372 120.875 117.476  1.00  0.00    -0.287 N 
ATOM      3  C   UNL     1      97.858 125.156 118.469  1.00  0.00     0.091 C 
ATOM      4  C   UNL     1      97.295 124.743 119.851  1.00  0.00    -0.026 C 
ATOM      5  C   UNL     1      97.000 124.563 117.294  1.00  0.00     0.061 C 
ATOM      6  C   UNL     1      96.908 127.116 120.507  1.00  0.00     0.116 C 
ATOM      7  C   UNL     1      97.071 127.424 118.997  1.00  0.00     0.102 C 
ATOM      8  C   UNL     1      96.768 123.105 117.541  1.00  0.00    -0.019 A 
ATOM      9  C   UNL     1      97.105 123.288 120.047  1.00  0.00    -0.011 A 
ATOM     10  C   UNL     1      96.840 122.590 118.852  1.00  0.00     0.011 A 
ATOM     11  C   UNL     1      96.893 125.636 120.774  1.00  0.00    -0.007 C 
ATOM     12  C   UNL     1      96.604 121.215 118.822  1.00  0.00     0.056 A 
ATOM     13  C   UNL     1      96.482 122.049 116.719  1.00  0.00     0.099 A 
ATOM     14  C   UNL     1      99.430 127.013 118.599  1.00  0.00     0.106 C 
ATOM     15  C   UNL     1      97.136 122.574 121.242  1.00  0.00     0.009 A 
ATOM     16  C   UNL     1      96.640 120.501 120.037  1.00  0.00     0.027 A 
ATOM     17  C   UNL     1      96.909 121.198 121.229  1.00  0.00     0.003 A 
ENDROOT
BRANCH   6  18
ATOM     18  C   UNL     1      97.805 128.028 121.384  1.00  0.00     0.230 C 
ATOM     19  O   UNL     1      99.001 127.766 121.547  1.00  0.00    -0.274 OA
ATOM     20  N   UNL     1      97.275 129.262 121.794  1.00  0.00    -0.343 N 
BRANCH  20  21
ATOM     21  C   UNL     1      96.261 129.238 122.858  1.00  0.00     0.116 C 
ATOM     22  C   UNL     1      94.901 129.779 122.427  1.00  0.00     0.027 C 
ENDBRANCH  20  21
BRANCH  20  23
ATOM     23  C   UNL     1      98.248 130.359 121.838  1.00  0.00     0.116 C 
ATOM     24  C   UNL     1      98.025 131.422 120.774  1.00  0.00     0.027 C 
ENDBRANCH  20  23
ENDBRANCH   6  18
BRANCH   2  25
ATOM     25  C   UNL     1      96.075 119.629 116.871  1.00  0.00     0.230 C 
ATOM     26  O   UNL     1      95.629 118.725 117.572  1.00  0.00    -0.274 OA
BRANCH  25  27
ATOM     27  C   UNL     1      96.334 119.501 115.396  1.00  0.00     0.097 C 
ATOM     28  C   UNL     1      95.225 118.732 114.692  1.00  0.00     0.014 C 
ENDBRANCH  25  27
ENDBRANCH   2  25
TORSDOF 5
ENDMDL
MODEL 10
REMARK VINA RESULT:    -6.083      3.686      7.396
REMARK INTER + INTRA:          -8.288
REMARK INTER:                  -7.853
REMARK INTRA:                  -0.435
REMARK UNBOUND:                -0.427
REMARK SMILES CCC(=O)n1cc2c3c(cccc31)C1=C[C@@H](C(=O)N(CC)CC)CN(C)[C@@H]1C2
REMARK SMILES IDX 25 1 5 2 27 3 14 4 28 5 16 6 24 7 7 8 9 9 8 10 15 11 13 12
REMARK SMILES IDX 6 13 26 14 10 15 12 16 11 17 17 18 18 19 19 20 20 21 21 22
REMARK SMILES IDX 22 23 23 24 3 25 4 26 2 27 1 28
REMARK H PARENT
ROOT
ATOM      1  N   UNL     1      96.200 121.663 117.649  1.00  0.00    -0.298 NA
ATOM      2  N   UNL     1      99.742 126.487 116.905  1.00  0.00    -0.287 N 
ATOM      3  C   UNL     1      96.765 123.028 117.740  1.00  0.00     0.091 C 
ATOM      4  C   UNL     1      96.926 123.591 119.173  1.00  0.00    -0.026 C 
ATOM      5  C   UNL     1      98.107 123.118 116.928  1.00  0.00     0.061 C 
ATOM      6  C   UNL     1      96.317 121.405 120.201  1.00  0.00     0.116 C 
ATOM      7  C   UNL     1      96.587 120.816 118.794  1.00  0.00     0.102 C 
ATOM      8  C   UNL     1      98.680 124.493 117.073  1.00  0.00    -0.019 A 
ATOM      9  C   UNL     1      97.477 124.962 119.255  1.00  0.00    -0.011 A 
ATOM     10  C   UNL     1      98.332 125.290 118.183  1.00  0.00     0.011 A 
ATOM     11  C   UNL     1      96.697 122.858 120.277  1.00  0.00    -0.007 C 
ATOM     12  C   UNL     1      98.976 126.524 118.086  1.00  0.00     0.056 A 
ATOM     13  C   UNL     1      99.537 125.236 116.308  1.00  0.00     0.099 A 
ATOM     14  C   UNL     1      94.750 121.686 117.467  1.00  0.00     0.106 C 
ATOM     15  C   UNL     1      97.268 125.911 120.252  1.00  0.00     0.009 A 
ATOM     16  C   UNL     1      98.754 127.479 119.099  1.00  0.00     0.027 A 
ATOM     17  C   UNL     1      97.898 127.153 120.167  1.00  0.00     0.003 A 
ENDROOT
BRANCH   6  18
ATOM     18  C   UNL     1      94.942 120.958 120.763  1.00  0.00     0.230 C 
ATOM     19  O   UNL     1      94.599 119.772 120.719  1.00  0.00    -0.274 OA
ATOM     20  N   UNL     1      94.211 121.893 121.514  1.00  0.00    -0.343 N 
BRANCH  20  21
ATOM     21  C   UNL     1      93.555 122.982 120.776  1.00  0.00     0.116 C 
ATOM     22  C   UNL     1      92.410 122.519 119.882  1.00  0.00     0.027 C 
ENDBRANCH  20  21
BRANCH  20  23
ATOM     23  C   UNL     1      93.468 121.321 122.641  1.00  0.00     0.116 C 
ATOM     24  C   UNL     1      92.832 122.361 123.550  1.00  0.00     0.027 C 
ENDBRANCH  20  23
ENDBRANCH   6  18
BRANCH   2  25
ATOM     25  C   UNL     1     100.594 127.456 116.321  1.00  0.00     0.230 C 
ATOM     26  O   UNL     1     100.715 128.545 116.876  1.00  0.00    -0.274 OA
BRANCH  25  27
ATOM     27  C   UNL     1     101.295 127.077 115.046  1.00  0.00     0.097 C 
ATOM     28  C   UNL     1     102.795 126.922 115.252  1.00  0.00     0.014 C 
ENDBRANCH  25  27
ENDBRANCH   2  25
TORSDOF 5
ENDMDL
MODEL 11
REMARK VINA RESULT:    -6.079      3.534      8.053
REMARK INTER + INTRA:          -8.282
REMARK INTER:                  -7.862
REMARK INTRA:                  -0.420
REMARK UNBOUND:                -0.427
REMARK SMILES CCC(=O)n1cc2c3c(cccc31)C1=C[C@@H](C(=O)N(CC)CC)CN(C)[C@@H]1C2
REMARK SMILES IDX 25 1 5 2 27 3 14 4 28 5 16 6 24 7 7 8 9 9 8 10 15 11 13 12
REMARK SMILES IDX 6 13 26 14 10 15 12 16 11 17 17 18 18 19 19 20 20 21 21 22
REMARK SMILES IDX 22 23 23 24 3 25 4 26 2 27 1 28
REMARK H PARENT
ROOT
ATOM      1  N   UNL     1      96.994 123.155 119.101  1.00  0.00    -0.298 NA
ATOM      2  N   UNL     1     100.056 123.369 113.910  1.00  0.00    -0.287 N 
ATOM      3  C   UNL     1      97.783 122.770 117.909  1.00  0.00     0.091 C 
ATOM      4  C   UNL     1      97.238 121.561 117.110  1.00  0.00    -0.026 C 
ATOM      5  C   UNL     1      98.017 124.017 116.983  1.00  0.00     0.061 C 
ATOM      6  C   UNL     1      95.152 121.482 118.471  1.00  0.00     0.116 C 
ATOM      7  C   UNL     1      95.550 122.908 118.926  1.00  0.00     0.102 C 
ATOM      8  C   UNL     1      98.776 123.592 115.765  1.00  0.00    -0.019 A 
ATOM      9  C   UNL     1      98.039 121.172 115.927  1.00  0.00    -0.011 A 
ATOM     10  C   UNL     1      98.738 122.247 115.343  1.00  0.00     0.011 A 
ATOM     11  C   UNL     1      96.061 120.970 117.388  1.00  0.00    -0.007 C 
ATOM     12  C   UNL     1      99.530 122.097 114.204  1.00  0.00     0.056 A 
ATOM     13  C   UNL     1      99.580 124.259 114.882  1.00  0.00     0.099 A 
ATOM     14  C   UNL     1      97.502 122.521 120.316  1.00  0.00     0.106 C 
ATOM     15  C   UNL     1      98.148 119.912 115.344  1.00  0.00     0.009 A 
ATOM     16  C   UNL     1      99.636 120.817 113.623  1.00  0.00     0.027 A 
ATOM     17  C   UNL     1      98.941 119.743 114.209  1.00  0.00     0.003 A 
ENDROOT
BRANCH   6  18
ATOM     18  C   UNL     1      94.826 120.559 119.675  1.00  0.00     0.230 C 
ATOM     19  O   UNL     1      95.570 119.617 119.965  1.00  0.00    -0.274 OA
ATOM     20  N   UNL     1      93.798 120.961 120.543  1.00  0.00    -0.343 N 
BRANCH  20  21
ATOM     21  C   UNL     1      92.417 120.820 120.062  1.00  0.00     0.116 C 
ATOM     22  C   UNL     1      91.896 119.387 120.094  1.00  0.00     0.027 C 
ENDBRANCH  20  21
BRANCH  20  23
ATOM     23  C   UNL     1      94.038 120.649 121.956  1.00  0.00     0.116 C 
ATOM     24  C   UNL     1      93.462 121.674 122.920  1.00  0.00     0.027 C 
ENDBRANCH  20  23
ENDBRANCH   6  18
BRANCH   2  25
ATOM     25  C   UNL     1     100.912 123.801 112.866  1.00  0.00     0.230 C 
ATOM     26  O   UNL     1     101.395 124.929 112.930  1.00  0.00    -0.274 OA
BRANCH  25  27
ATOM     27  C   UNL     1     101.168 122.837 111.742  1.00  0.00     0.097 C 
ATOM     28  C   UNL     1     102.383 121.961 112.016  1.00  0.00     0.014 C 
ENDBRANCH  25  27
ENDBRANCH   2  25
TORSDOF 5
ENDMDL
MODEL 12
REMARK VINA RESULT:    -5.979      3.027      5.243
REMARK INTER + INTRA:          -8.154
REMARK INTER:                  -7.752
REMARK INTRA:                  -0.401
REMARK UNBOUND:                -0.427
REMARK SMILES CCC(=O)n1cc2c3c(cccc31)C1=C[C@@H](C(=O)N(CC)CC)CN(C)[C@@H]1C2
REMARK SMILES IDX 25 1 5 2 27 3 14 4 28 5 16 6 24 7 7 8 9 9 8 10 15 11 13 12
REMARK SMILES IDX 6 13 26 14 10 15 12 16 11 17 17 18 18 19 19 20 20 21 21 22
REMARK SMILES IDX 22 23 23 24 3 25 4 26 2 27 1 28
REMARK H PARENT
ROOT
ATOM      1  N   UNL     1      98.465 120.597 115.420  1.00  0.00    -0.298 NA
ATOM      2  N   UNL     1      94.559 121.874 119.834  1.00  0.00    -0.287 N 
ATOM      3  C   UNL     1      97.855 121.150 116.651  1.00  0.00     0.091 C 
ATOM      4  C   UNL     1      98.000 122.679 116.840  1.00  0.00    -0.026 C 
ATOM      5  C   UNL     1      96.357 120.692 116.769  1.00  0.00     0.061 C 
ATOM      6  C   UNL     1      98.966 122.964 114.561  1.00  0.00     0.116 C 
ATOM      7  C   UNL     1      98.410 121.544 114.290  1.00  0.00     0.102 C 
ATOM      8  C   UNL     1      95.750 121.300 117.995  1.00  0.00    -0.019 A 
ATOM      9  C   UNL     1      97.400 123.222 118.080  1.00  0.00    -0.011 A 
ATOM     10  C   UNL     1      96.300 122.476 118.546  1.00  0.00     0.011 A 
ATOM     11  C   UNL     1      98.527 123.486 115.901  1.00  0.00    -0.007 C 
ATOM     12  C   UNL     1      95.577 122.835 119.684  1.00  0.00     0.056 A 
ATOM     13  C   UNL     1      94.694 120.949 118.790  1.00  0.00     0.099 A 
ATOM     14  C   UNL     1      99.828 120.124 115.655  1.00  0.00     0.106 C 
ATOM     15  C   UNL     1      97.780 124.360 118.787  1.00  0.00     0.009 A 
ATOM     16  C   UNL     1      95.971 123.987 120.395  1.00  0.00     0.027 A 
ATOM     17  C   UNL     1      97.072 124.730 119.931  1.00  0.00     0.003 A 
ENDROOT
BRANCH   6  18
ATOM     18  C   UNL     1     100.460 123.088 114.160  1.00  0.00     0.230 C 
ATOM     19  O   UNL     1     101.349 122.674 114.910  1.00  0.00    -0.274 OA
ATOM     20  N   UNL     1     100.749 123.474 112.841  1.00  0.00    -0.343 N 
BRANCH  20  21
ATOM     21  C   UNL     1     100.539 124.885 112.491  1.00  0.00     0.116 C 
ATOM     22  C   UNL     1     101.184 125.866 113.466  1.00  0.00     0.027 C 
ENDBRANCH  20  21
BRANCH  20  23
ATOM     23  C   UNL     1     101.927 122.821 112.260  1.00  0.00     0.116 C 
ATOM     24  C   UNL     1     101.687 121.380 111.838  1.00  0.00     0.027 C 
ENDBRANCH  20  23
ENDBRANCH   6  18
BRANCH   2  25
ATOM     25  C   UNL     1      93.535 121.750 120.806  1.00  0.00     0.230 C 
ATOM     26  O   UNL     1      93.323 122.695 121.562  1.00  0.00    -0.274 OA
BRANCH  25  27
ATOM     27  C   UNL     1      92.775 120.454 120.844  1.00  0.00     0.097 C 
ATOM     28  C   UNL     1      93.459 119.424 121.732  1.00  0.00     0.014 C 
ENDBRANCH  25  27
ENDBRANCH   2  25
TORSDOF 5
ENDMDL
MODEL 13
REMARK VINA RESULT:    -5.947      2.875      4.224
REMARK INTER + INTRA:          -8.112
REMARK INTER:                  -7.534
REMARK INTRA:                  -0.578
REMARK UNBOUND:                -0.427
REMARK SMILES CCC(=O)n1cc2c3c(cccc31)C1=C[C@@H](C(=O)N(CC)CC)CN(C)[C@@H]1C2
REMARK SMILES IDX 25 1 5 2 27 3 14 4 28 5 16 6 24 7 7 8 9 9 8 10 15 11 13 12
REMARK SMILES IDX 6 13 26 14 10 15 12 16 11 17 17 18 18 19 19 20 20 21 21 22
REMARK SMILES IDX 22 23 23 24 3 25 4 26 2 27 1 28
REMARK H PARENT
ROOT
ATOM      1  N   UNL     1      98.952 124.075 115.458  1.00  0.00    -0.298 NA
ATOM      2  N   UNL     1      95.259 122.324 119.893  1.00  0.00    -0.287 N 
ATOM      3  C   UNL     1      97.933 123.339 116.240  1.00  0.00     0.091 C 
ATOM      4  C   UNL     1      98.095 121.799 116.269  1.00  0.00    -0.026 C 
ATOM      5  C   UNL     1      97.822 123.936 117.689  1.00  0.00     0.061 C 
ATOM      6  C   UNL     1     100.300 121.917 115.114  1.00  0.00     0.116 C 
ATOM      7  C   UNL     1     100.273 123.418 115.495  1.00  0.00     0.102 C 
ATOM      8  C   UNL     1      96.820 123.147 118.472  1.00  0.00    -0.019 A 
ATOM      9  C   UNL     1      97.064 121.069 117.040  1.00  0.00    -0.011 A 
ATOM     10  C   UNL     1      96.520 121.820 118.102  1.00  0.00     0.011 A 
ATOM     11  C   UNL     1      99.155 121.165 115.735  1.00  0.00    -0.007 C 
ATOM     12  C   UNL     1      95.553 121.305 118.967  1.00  0.00     0.056 A 
ATOM     13  C   UNL     1      96.045 123.436 119.562  1.00  0.00     0.099 A 
ATOM     14  C   UNL     1      98.512 124.316 114.085  1.00  0.00     0.106 C 
ATOM     15  C   UNL     1      96.616 119.765 116.849  1.00  0.00     0.009 A 
ATOM     16  C   UNL     1      95.103 119.985 118.763  1.00  0.00     0.027 A 
ATOM     17  C   UNL     1      95.645 119.237 117.701  1.00  0.00     0.003 A 
ENDROOT
BRANCH   6  18
ATOM     18  C   UNL     1     100.607 121.706 113.608  1.00  0.00     0.230 C 
ATOM     19  O   UNL     1     101.486 122.367 113.046  1.00  0.00    -0.274 OA
ATOM     20  N   UNL     1     100.020 120.600 112.973  1.00  0.00    -0.343 N 
BRANCH  20  21
ATOM     21  C   UNL     1      98.585 120.684 112.667  1.00  0.00     0.116 C 
ATOM     22  C   UNL     1      97.757 119.556 113.273  1.00  0.00     0.027 C 
ENDBRANCH  20  21
BRANCH  20  23
ATOM     23  C   UNL     1     100.869 119.952 111.968  1.00  0.00     0.116 C 
ATOM     24  C   UNL     1     100.278 119.956 110.567  1.00  0.00     0.027 C 
ENDBRANCH  20  23
ENDBRANCH   6  18
BRANCH   2  25
ATOM     25  C   UNL     1      94.363 122.350 120.991  1.00  0.00     0.230 C 
ATOM     26  O   UNL     1      93.581 123.292 121.090  1.00  0.00    -0.274 OA
BRANCH  25  27
ATOM     27  C   UNL     1      94.437 121.210 121.967  1.00  0.00     0.097 C 
ATOM     28  C   UNL     1      93.187 120.342 121.917  1.00  0.00     0.014 C 
ENDBRANCH  25  27
ENDBRANCH   2  25
TORSDOF 5
ENDMDL
MODEL 14
REMARK VINA RESULT:    -5.793      3.809      5.440
REMARK INTER + INTRA:          -7.914
REMARK INTER:                  -7.231
REMARK INTRA:                  -0.682
REMARK UNBOUND:                -0.427
REMARK SMILES CCC(=O)n1cc2c3c(cccc31)C1=C[C@@H](C(=O)N(CC)CC)CN(C)[C@@H]1C2
REMARK SMILES IDX 25 1 5 2 27 3 14 4 28 5 16 6 24 7 7 8 9 9 8 10 15 11 13 12
REMARK SMILES IDX 6 13 26 14 10 15 12 16 11 17 17 18 18 19 19 20 20 21 21 22
REMARK SMILES IDX 22 23 23 24 3 25 4 26 2 27 1 28
REMARK H PARENT
ROOT
ATOM      1  N   UNL     1      97.667 123.985 116.629  1.00  0.00    -0.298 NA
ATOM      2  N   UNL     1      94.263 121.657 121.029  1.00  0.00    -0.287 N 
ATOM      3  C   UNL     1      96.747 123.110 117.391  1.00  0.00     0.091 C 
ATOM      4  C   UNL     1      97.077 121.598 117.350  1.00  0.00    -0.026 C 
ATOM      5  C   UNL     1      96.597 123.630 118.865  1.00  0.00     0.061 C 
ATOM      6  C   UNL     1      99.236 122.004 116.174  1.00  0.00     0.116 C 
ATOM      7  C   UNL     1      99.052 123.476 116.620  1.00  0.00     0.102 C 
ATOM      8  C   UNL     1      95.701 122.704 119.626  1.00  0.00    -0.019 A 
ATOM      9  C   UNL     1      96.145 120.728 118.102  1.00  0.00    -0.011 A 
ATOM     10  C   UNL     1      95.540 121.369 119.202  1.00  0.00     0.011 A 
ATOM     11  C   UNL     1      98.190 121.107 116.776  1.00  0.00    -0.007 C 
ATOM     12  C   UNL     1      94.651 120.716 120.056  1.00  0.00     0.056 A 
ATOM     13  C   UNL     1      94.918 122.861 120.737  1.00  0.00     0.099 A 
ATOM     14  C   UNL     1      97.180 124.234 115.273  1.00  0.00     0.106 C 
ATOM     15  C   UNL     1      95.838 119.391 117.860  1.00  0.00     0.009 A 
ATOM     16  C   UNL     1      94.344 119.364 119.800  1.00  0.00     0.027 A 
ATOM     17  C   UNL     1      94.945 118.725 118.700  1.00  0.00     0.003 A 
ENDROOT
BRANCH   6  18
ATOM     18  C   UNL     1      99.538 121.892 114.657  1.00  0.00     0.230 C 
ATOM     19  O   UNL     1      98.867 121.148 113.935  1.00  0.00    -0.274 OA
ATOM     20  N   UNL     1     100.437 122.818 114.102  1.00  0.00    -0.343 N 
BRANCH  20  21
ATOM     21  C   UNL     1     101.864 122.632 114.399  1.00  0.00     0.116 C 
ATOM     22  C   UNL     1     102.479 123.766 115.211  1.00  0.00     0.027 C 
ENDBRANCH  20  21
BRANCH  20  23
ATOM     23  C   UNL     1     100.099 123.254 112.743  1.00  0.00     0.116 C 
ATOM     24  C   UNL     1     100.208 124.757 112.534  1.00  0.00     0.027 C 
ENDBRANCH  20  23
ENDBRANCH   6  18
BRANCH   2  25
ATOM     25  C   UNL     1      93.389 121.539 122.138  1.00  0.00     0.230 C 
ATOM     26  O   UNL     1      92.926 120.434 122.407  1.00  0.00    -0.274 OA
BRANCH  25  27
ATOM     27  C   UNL     1      93.086 122.791 122.912  1.00  0.00     0.097 C 
ATOM     28  C   UNL     1      92.309 122.493 124.186  1.00  0.00     0.014 C 
ENDBRANCH  25  27
ENDBRANCH   2  25
TORSDOF 5
ENDMDL
MODEL 15
REMARK VINA RESULT:    -5.730      3.332      5.890
REMARK INTER + INTRA:          -7.832
REMARK INTER:                  -7.534
REMARK INTRA:                  -0.298
REMARK UNBOUND:                -0.427
REMARK SMILES CCC(=O)n1cc2c3c(cccc31)C1=C[C@@H](C(=O)N(CC)CC)CN(C)[C@@H]1C2
REMARK SMILES IDX 25 1 5 2 27 3 14 4 28 5 16 6 24 7 7 8 9 9 8 10 15 11 13 12
REMARK SMILES IDX 6 13 26 14 10 15 12 16 11 17 17 18 18 19 19 20 20 21 21 22
REMARK SMILES IDX 22 23 23 24 3 25 4 26 2 27 1 28
REMARK H PARENT
ROOT
ATOM      1  N   UNL     1      99.369 121.408 114.696  1.00  0.00    -0.298 NA
ATOM      2  N   UNL     1      95.117 120.384 118.849  1.00  0.00    -0.287 N 
ATOM      3  C   UNL     1      98.578 121.444 115.947  1.00  0.00     0.091 C 
ATOM      4  C   UNL     1      98.238 122.856 116.483  1.00  0.00    -0.026 C 
ATOM      5  C   UNL     1      97.291 120.554 115.804  1.00  0.00     0.061 C 
ATOM      6  C   UNL     1      99.143 123.952 114.436  1.00  0.00     0.116 C 
ATOM      7  C   UNL     1      99.062 122.541 113.802  1.00  0.00     0.102 C 
ATOM      8  C   UNL     1      96.487 120.644 117.064  1.00  0.00    -0.019 A 
ATOM      9  C   UNL     1      97.461 122.884 117.742  1.00  0.00    -0.011 A 
ATOM     10  C   UNL     1      96.629 121.760 117.914  1.00  0.00     0.011 A 
ATOM     11  C   UNL     1      98.521 123.983 115.805  1.00  0.00    -0.007 C 
ATOM     12  C   UNL     1      95.794 121.606 119.021  1.00  0.00     0.056 A 
ATOM     13  C   UNL     1      95.565 119.819 117.647  1.00  0.00     0.099 A 
ATOM     14  C   UNL     1     100.803 121.310 114.962  1.00  0.00     0.106 C 
ATOM     15  C   UNL     1      97.448 123.877 118.718  1.00  0.00     0.009 A 
ATOM     16  C   UNL     1      95.791 122.615 120.006  1.00  0.00     0.027 A 
ATOM     17  C   UNL     1      96.624 123.736 119.835  1.00  0.00     0.003 A 
ENDROOT
BRANCH   6  18
ATOM     18  C   UNL     1     100.538 124.600 114.231  1.00  0.00     0.230 C 
ATOM     19  O   UNL     1     101.346 124.115 113.433  1.00  0.00    -0.274 OA
ATOM     20  N   UNL     1     100.759 125.863 114.804  1.00  0.00    -0.343 N 
BRANCH  20  21
ATOM     21  C   UNL     1     100.950 125.916 116.260  1.00  0.00     0.116 C 
ATOM     22  C   UNL     1     100.236 127.083 116.935  1.00  0.00     0.027 C 
ENDBRANCH  20  21
BRANCH  20  23
ATOM     23  C   UNL     1     101.595 126.759 113.998  1.00  0.00     0.116 C 
ATOM     24  C   UNL     1     102.963 127.035 114.603  1.00  0.00     0.027 C 
ENDBRANCH  20  23
ENDBRANCH   6  18
BRANCH   2  25
ATOM     25  C   UNL     1      94.151 119.735 119.657  1.00  0.00     0.230 C 
ATOM     26  O   UNL     1      94.158 118.508 119.713  1.00  0.00    -0.274 OA
BRANCH  25  27
ATOM     27  C   UNL     1      93.174 120.607 120.395  1.00  0.00     0.097 C 
ATOM     28  C   UNL     1      93.326 120.473 121.904  1.00  0.00     0.014 C 
ENDBRANCH  25  27
ENDBRANCH   2  25
TORSDOF 5
ENDMDL
MODEL 16
REMARK VINA RESULT:    -5.701      3.863      9.965
REMARK INTER + INTRA:          -7.794
REMARK INTER:                  -7.551
REMARK INTRA:                  -0.243
REMARK UNBOUND:                -0.427
REMARK SMILES CCC(=O)n1cc2c3c(cccc31)C1=C[C@@H](C(=O)N(CC)CC)CN(C)[C@@H]1C2
REMARK SMILES IDX 25 1 5 2 27 3 14 4 28 5 16 6 24 7 7 8 9 9 8 10 15 11 13 12
REMARK SMILES IDX 6 13 26 14 10 15 12 16 11 17 17 18 18 19 19 20 20 21 21 22
REMARK SMILES IDX 22 23 23 24 3 25 4 26 2 27 1 28
REMARK H PARENT
ROOT
ATOM      1  N   UNL     1      97.209 130.273 121.489  1.00  0.00    -0.298 NA
ATOM      2  N   UNL     1      99.619 126.735 117.241  1.00  0.00    -0.287 N 
ATOM      3  C   UNL     1      97.682 129.087 120.739  1.00  0.00     0.091 C 
ATOM      4  C   UNL     1      96.658 127.936 120.594  1.00  0.00    -0.026 C 
ATOM      5  C   UNL     1      98.266 129.521 119.347  1.00  0.00     0.061 C 
ATOM      6  C   UNL     1      94.830 129.311 121.582  1.00  0.00     0.116 C 
ATOM      7  C   UNL     1      95.765 130.516 121.307  1.00  0.00     0.102 C 
ATOM      8  C   UNL     1      98.695 128.302 118.590  1.00  0.00    -0.019 A 
ATOM      9  C   UNL     1      97.143 126.748 119.855  1.00  0.00    -0.011 A 
ATOM     10  C   UNL     1      98.127 127.048 118.892  1.00  0.00     0.011 A 
ATOM     11  C   UNL     1      95.380 128.038 121.001  1.00  0.00    -0.007 C 
ATOM     12  C   UNL     1      98.695 126.073 118.071  1.00  0.00     0.056 A 
ATOM     13  C   UNL     1      99.599 128.093 117.585  1.00  0.00     0.099 A 
ATOM     14  C   UNL     1      97.564 130.197 122.905  1.00  0.00     0.106 C 
ATOM     15  C   UNL     1      96.726 125.426 119.991  1.00  0.00     0.009 A 
ATOM     16  C   UNL     1      98.268 124.737 118.219  1.00  0.00     0.027 A 
ATOM     17  C   UNL     1      97.288 124.438 119.183  1.00  0.00     0.003 A 
ENDROOT
BRANCH   6  18
ATOM     18  C   UNL     1      94.307 129.305 123.042  1.00  0.00     0.230 C 
ATOM     19  O   UNL     1      95.084 129.151 123.989  1.00  0.00    -0.274 OA
ATOM     20  N   UNL     1      92.976 129.701 123.258  1.00  0.00    -0.343 N 
BRANCH  20  21
ATOM     21  C   UNL     1      91.922 128.751 122.878  1.00  0.00     0.116 C 
ATOM     22  C   UNL     1      90.889 129.327 121.915  1.00  0.00     0.027 C 
ENDBRANCH  20  21
BRANCH  20  23
ATOM     23  C   UNL     1      92.760 130.463 124.492  1.00  0.00     0.116 C 
ATOM     24  C   UNL     1      92.805 131.971 124.301  1.00  0.00     0.027 C 
ENDBRANCH  20  23
ENDBRANCH   6  18
BRANCH   2  25
ATOM     25  C   UNL     1     100.469 126.243 116.219  1.00  0.00     0.230 C 
ATOM     26  O   UNL     1     100.307 125.091 115.823  1.00  0.00    -0.274 OA
BRANCH  25  27
ATOM     27  C   UNL     1     101.520 127.176 115.689  1.00  0.00     0.097 C 
ATOM     28  C   UNL     1     102.528 126.450 114.808  1.00  0.00     0.014 C 
ENDBRANCH  25  27
ENDBRANCH   2  25
TORSDOF 5
ENDMDL
MODEL 17
REMARK VINA RESULT:    -5.372      3.112      4.987
REMARK INTER + INTRA:          -7.368
REMARK INTER:                  -8.004
REMARK INTRA:                   0.636
REMARK UNBOUND:                -0.427
REMARK SMILES CCC(=O)n1cc2c3c(cccc31)C1=C[C@@H](C(=O)N(CC)CC)CN(C)[C@@H]1C2
REMARK SMILES IDX 25 1 5 2 27 3 14 4 28 5 16 6 24 7 7 8 9 9 8 10 15 11 13 12
REMARK SMILES IDX 6 13 26 14 10 15 12 16 11 17 17 18 18 19 19 20 20 21 21 22
REMARK SMILES IDX 22 23 23 24 3 25 4 26 2 27 1 28
REMARK H PARENT
ROOT
ATOM      1  N   UNL     1      98.691 120.945 115.451  1.00  0.00    -0.298 NA
ATOM      2  N   UNL     1      95.031 121.593 120.200  1.00  0.00    -0.287 N 
ATOM      3  C   UNL     1      98.098 121.412 116.725  1.00  0.00     0.091 C 
ATOM      4  C   UNL     1      97.955 122.946 116.873  1.00  0.00    -0.026 C 
ATOM      5  C   UNL     1      96.738 120.674 116.996  1.00  0.00     0.061 C 
ATOM      6  C   UNL     1      98.632 123.331 114.506  1.00  0.00     0.116 C 
ATOM      7  C   UNL     1      98.346 121.821 114.315  1.00  0.00     0.102 C 
ATOM      8  C   UNL     1      96.139 121.196 118.265  1.00  0.00    -0.019 A 
ATOM      9  C   UNL     1      97.376 123.406 118.155  1.00  0.00    -0.011 A 
ATOM     10  C   UNL     1      96.492 122.476 118.739  1.00  0.00     0.011 A 
ATOM     11  C   UNL     1      98.223 123.806 115.873  1.00  0.00    -0.007 C 
ATOM     12  C   UNL     1      95.820 122.728 119.935  1.00  0.00     0.056 A 
ATOM     13  C   UNL     1      95.250 120.675 119.164  1.00  0.00     0.099 A 
ATOM     14  C   UNL     1     100.136 120.755 115.561  1.00  0.00     0.106 C 
ATOM     15  C   UNL     1      97.586 124.621 118.803  1.00  0.00     0.009 A 
ATOM     16  C   UNL     1      96.043 123.959 120.585  1.00  0.00     0.027 A 
ATOM     17  C   UNL     1      96.928 124.886 120.003  1.00  0.00     0.003 A 
ENDROOT
BRANCH   6  18
ATOM     18  C   UNL     1     100.029 123.730 113.960  1.00  0.00     0.230 C 
ATOM     19  O   UNL     1     100.473 124.868 114.140  1.00  0.00    -0.274 OA
ATOM     20  N   UNL     1     100.849 122.705 113.461  1.00  0.00    -0.343 N 
BRANCH  20  21
ATOM     21  C   UNL     1     100.499 122.141 112.150  1.00  0.00     0.116 C 
ATOM     22  C   UNL     1     100.971 120.705 111.950  1.00  0.00     0.027 C 
ENDBRANCH  20  21
BRANCH  20  23
ATOM     23  C   UNL     1     102.278 122.879 113.742  1.00  0.00     0.116 C 
ATOM     24  C   UNL     1     102.581 123.251 115.185  1.00  0.00     0.027 C 
ENDBRANCH  20  23
ENDBRANCH   6  18
BRANCH   2  25
ATOM     25  C   UNL     1      94.146 121.306 121.269  1.00  0.00     0.230 C 
ATOM     26  O   UNL     1      94.229 120.214 121.826  1.00  0.00    -0.274 OA
BRANCH  25  27
ATOM     27  C   UNL     1      93.156 122.372 121.647  1.00  0.00     0.097 C 
ATOM     28  C   UNL     1      93.030 122.515 123.158  1.00  0.00     0.014 C 
ENDBRANCH  25  27
ENDBRANCH   2  25
TORSDOF 5
ENDMDL
MODEL 18
REMARK VINA RESULT:    -5.278      3.667      8.541
REMARK INTER + INTRA:          -7.248
REMARK INTER:                  -7.300
REMARK INTRA:                   0.053
REMARK UNBOUND:                -0.427
REMARK SMILES CCC(=O)n1cc2c3c(cccc31)C1=C[C@@H](C(=O)N(CC)CC)CN(C)[C@@H]1C2
REMARK SMILES IDX 25 1 5 2 27 3 14 4 28 5 16 6 24 7 7 8 9 9 8 10 15 11 13 12
REMARK SMILES IDX 6 13 26 14 10 15 12 16 11 17 17 18 18 19 19 20 20 21 21 22
REMARK SMILES IDX 22 23 23 24 3 25 4 26 2 27 1 28
REMARK H PARENT
ROOT
ATOM      1  N   UNL     1      97.320 122.423 119.562  1.00  0.00    -0.298 NA
ATOM      2  N   UNL     1      99.367 120.770 114.136  1.00  0.00    -0.287 N 
ATOM      3  C   UNL     1      97.563 121.663 118.315  1.00  0.00     0.091 C 
ATOM      4  C   UNL     1      96.296 121.162 117.580  1.00  0.00    -0.026 C 
ATOM      5  C   UNL     1      98.505 122.476 117.356  1.00  0.00     0.061 C 
ATOM      6  C   UNL     1      94.793 122.433 119.108  1.00  0.00     0.116 C 
ATOM      7  C   UNL     1      96.073 123.209 119.509  1.00  0.00     0.102 C 
ATOM      8  C   UNL     1      98.697 121.707 116.086  1.00  0.00    -0.019 A 
ATOM      9  C   UNL     1      96.547 120.390 116.342  1.00  0.00    -0.011 A 
ATOM     10  C   UNL     1      97.742 120.750 115.688  1.00  0.00     0.011 A 
ATOM     11  C   UNL     1      95.049 121.495 117.962  1.00  0.00    -0.007 C 
ATOM     12  C   UNL     1      98.148 120.161 114.490  1.00  0.00     0.056 A 
ATOM     13  C   UNL     1      99.677 121.706 115.131  1.00  0.00     0.099 A 
ATOM     14  C   UNL     1      97.358 121.559 120.741  1.00  0.00     0.106 C 
ATOM     15  C   UNL     1      95.745 119.406 115.770  1.00  0.00     0.009 A 
ATOM     16  C   UNL     1      97.331 119.163 113.920  1.00  0.00     0.027 A 
ATOM     17  C   UNL     1      96.140 118.802 114.576  1.00  0.00     0.003 A 
ENDROOT
BRANCH   6  18
ATOM     18  C   UNL     1      94.020 121.911 120.348  1.00  0.00     0.230 C 
ATOM     19  O   UNL     1      93.654 122.688 121.235  1.00  0.00    -0.274 OA
ATOM     20  N   UNL     1      93.560 120.584 120.315  1.00  0.00    -0.343 N 
BRANCH  20  21
ATOM     21  C   UNL     1      94.559 119.522 120.493  1.00  0.00     0.116 C 
ATOM     22  C   UNL     1      94.514 118.444 119.415  1.00  0.00     0.027 C 
ENDBRANCH  20  21
BRANCH  20  23
ATOM     23  C   UNL     1      92.257 120.376 120.957  1.00  0.00     0.116 C 
ATOM     24  C   UNL     1      92.339 120.151 122.458  1.00  0.00     0.027 C 
ENDBRANCH  20  23
ENDBRANCH   6  18
BRANCH   2  25
ATOM     25  C   UNL     1     100.217 120.567 113.020  1.00  0.00     0.230 C 
ATOM     26  O   UNL     1     100.202 119.473 112.460  1.00  0.00    -0.274 OA
BRANCH  25  27
ATOM     27  C   UNL     1     101.086 121.718 112.597  1.00  0.00     0.097 C 
ATOM     28  C   UNL     1     100.294 123.014 112.492  1.00  0.00     0.014 C 
ENDBRANCH  25  27
ENDBRANCH   2  25
TORSDOF 5
ENDMDL
MODEL 19
REMARK VINA RESULT:    -4.960      4.689      6.362
REMARK INTER + INTRA:          -6.836
REMARK INTER:                  -6.548
REMARK INTRA:                  -0.288
REMARK UNBOUND:                -0.427
REMARK SMILES CCC(=O)n1cc2c3c(cccc31)C1=C[C@@H](C(=O)N(CC)CC)CN(C)[C@@H]1C2
REMARK SMILES IDX 25 1 5 2 27 3 14 4 28 5 16 6 24 7 7 8 9 9 8 10 15 11 13 12
REMARK SMILES IDX 6 13 26 14 10 15 12 16 11 17 17 18 18 19 19 20 20 21 21 22
REMARK SMILES IDX 22 23 23 24 3 25 4 26 2 27 1 28
REMARK H PARENT
ROOT
ATOM      1  N   UNL     1      97.723 125.912 117.603  1.00  0.00    -0.298 NA
ATOM      2  N   UNL     1      97.148 130.757 121.148  1.00  0.00    -0.287 N 
ATOM      3  C   UNL     1      97.194 126.900 118.571  1.00  0.00     0.091 C 
ATOM      4  C   UNL     1      96.691 126.316 119.914  1.00  0.00    -0.026 C 
ATOM      5  C   UNL     1      98.236 128.053 118.796  1.00  0.00     0.061 C 
ATOM      6  C   UNL     1      97.553 124.045 119.357  1.00  0.00     0.116 C 
ATOM      7  C   UNL     1      98.380 124.769 118.265  1.00  0.00     0.102 C 
ATOM      8  C   UNL     1      97.698 129.013 119.811  1.00  0.00    -0.019 A 
ATOM      9  C   UNL     1      96.151 127.307 120.871  1.00  0.00    -0.011 A 
ATOM     10  C   UNL     1      96.725 128.587 120.739  1.00  0.00     0.011 A 
ATOM     11  C   UNL     1      96.835 125.020 120.248  1.00  0.00    -0.007 C 
ATOM     12  C   UNL     1      96.374 129.657 121.564  1.00  0.00     0.056 A 
ATOM     13  C   UNL     1      97.943 130.332 120.075  1.00  0.00     0.099 A 
ATOM     14  C   UNL     1      96.693 125.467 116.665  1.00  0.00     0.106 C 
ATOM     15  C   UNL     1      95.194 127.107 121.862  1.00  0.00     0.009 A 
ATOM     16  C   UNL     1      95.401 129.444 122.562  1.00  0.00     0.027 A 
ATOM     17  C   UNL     1      94.825 128.167 122.691  1.00  0.00     0.003 A 
ENDROOT
BRANCH   6  18
ATOM     18  C   UNL     1      96.770 122.835 118.784  1.00  0.00     0.230 C 
ATOM     19  O   UNL     1      96.867 122.530 117.591  1.00  0.00    -0.274 OA
ATOM     20  N   UNL     1      96.138 121.977 119.699  1.00  0.00    -0.343 N 
BRANCH  20  21
ATOM     21  C   UNL     1      94.910 122.467 120.341  1.00  0.00     0.116 C 
ATOM     22  C   UNL     1      94.464 121.633 121.538  1.00  0.00     0.027 C 
ENDBRANCH  20  21
BRANCH  20  23
ATOM     23  C   UNL     1      96.163 120.560 119.323  1.00  0.00     0.116 C 
ATOM     24  C   UNL     1      97.471 119.858 119.654  1.00  0.00     0.027 C 
ENDBRANCH  20  23
ENDBRANCH   6  18
BRANCH   2  25
ATOM     25  C   UNL     1      97.206 132.087 121.633  1.00  0.00     0.230 C 
ATOM     26  O   UNL     1      96.154 132.681 121.849  1.00  0.00    -0.274 OA
BRANCH  25  27
ATOM     27  C   UNL     1      98.570 132.681 121.848  1.00  0.00     0.097 C 
ATOM     28  C   UNL     1      99.040 132.510 123.286  1.00  0.00     0.014 C 
ENDBRANCH  25  27
ENDBRANCH   2  25
TORSDOF 5
ENDMDL
