MODEL 1
REMARK VINA RESULT:    -9.967      0.000      0.000
REMARK INTER + INTRA:         -13.453
REMARK INTER:                 -12.881
REMARK INTRA:                  -0.572
REMARK UNBOUND:                -0.572
REMARK SMILES CCC(=O)n1cc2c3c(cccc31)C1=C[C@@H](C(=O)N(CC)CC)CN(C)[C@@H]1C2
REMARK SMILES IDX 25 1 5 2 27 3 14 4 28 5 16 6 24 7 7 8 9 9 8 10 15 11 13 12
REMARK SMILES IDX 6 13 26 14 10 15 12 16 11 17 17 18 18 19 19 20 20 21 21 22
REMARK SMILES IDX 22 23 23 24 3 25 4 26 2 27 1 28
REMARK H PARENT
ROOT
ATOM      1  N   UNL     1      19.287  17.856  10.922  1.00  0.00    -0.298 NA
ATOM      2  N   UNL     1      23.492  14.529   8.160  1.00  0.00    -0.287 N 
ATOM      3  C   UNL     1      20.162  17.259   9.887  1.00  0.00     0.091 C 
ATOM      4  C   UNL     1      20.871  18.266   8.949  1.00  0.00    -0.026 C 
ATOM      5  C   UNL     1      21.183  16.263  10.545  1.00  0.00     0.061 C 
ATOM      6  C   UNL     1      20.092  20.212  10.296  1.00  0.00     0.116 C 
ATOM      7  C   UNL     1      19.783  19.164  11.393  1.00  0.00     0.102 C 
ATOM      8  C   UNL     1      22.084  15.709   9.486  1.00  0.00    -0.019 A 
ATOM      9  C   UNL     1      21.732  17.661   7.908  1.00  0.00    -0.011 A 
ATOM     10  C   UNL     1      22.282  16.420   8.285  1.00  0.00     0.011 A 
ATOM     11  C   UNL     1      20.812  19.598   9.127  1.00  0.00    -0.007 C 
ATOM     12  C   UNL     1      23.143  15.698   7.457  1.00  0.00     0.056 A 
ATOM     13  C   UNL     1      22.826  14.564   9.393  1.00  0.00     0.099 A 
ATOM     14  C   UNL     1      17.898  17.941  10.475  1.00  0.00     0.106 C 
ATOM     15  C   UNL     1      22.061  18.183   6.659  1.00  0.00     0.009 A 
ATOM     16  C   UNL     1      23.467  16.233   6.193  1.00  0.00     0.027 A 
ATOM     17  C   UNL     1      22.915  17.471   5.816  1.00  0.00     0.003 A 
ENDROOT
BRANCH   6  18
ATOM     18  C   UNL     1      18.881  21.143  10.026  1.00  0.00     0.230 C 
ATOM     19  O   UNL     1      18.139  20.946   9.059  1.00  0.00    -0.274 OA
ATOM     20  N   UNL     1      18.532  22.063  11.028  1.00  0.00    -0.343 N 
BRANCH  20  21
ATOM     21  C   UNL     1      19.397  23.240  11.192  1.00  0.00     0.116 C 
ATOM     22  C   UNL     1      20.121  23.292  12.534  1.00  0.00     0.027 C 
ENDBRANCH  20  21
BRANCH  20  23
ATOM     23  C   UNL     1      17.089  22.282  11.178  1.00  0.00     0.116 C 
ATOM     24  C   UNL     1      16.636  23.681  10.790  1.00  0.00     0.027 C 
ENDBRANCH  20  23
ENDBRANCH   6  18
BRANCH   2  25
ATOM     25  C   UNL     1      24.337  13.449   7.805  1.00  0.00     0.230 C 
ATOM     26  O   UNL     1      24.576  13.255   6.615  1.00  0.00    -0.274 OA
BRANCH  25  27
ATOM     27  C   UNL     1      24.886  12.607   8.923  1.00  0.00     0.097 C 
ATOM     28  C   UNL     1      26.011  13.316   9.663  1.00  0.00     0.014 C 
ENDBRANCH  25  27
ENDBRANCH   2  25
TORSDOF 5
ENDMDL
MODEL 2
REMARK VINA RESULT:    -9.547      1.894      2.354
REMARK INTER + INTRA:         -12.909
REMARK INTER:                 -12.200
REMARK INTRA:                  -0.709
REMARK UNBOUND:                -0.572
REMARK SMILES CCC(=O)n1cc2c3c(cccc31)C1=C[C@@H](C(=O)N(CC)CC)CN(C)[C@@H]1C2
REMARK SMILES IDX 25 1 5 2 27 3 14 4 28 5 16 6 24 7 7 8 9 9 8 10 15 11 13 12
REMARK SMILES IDX 6 13 26 14 10 15 12 16 11 17 17 18 18 19 19 20 20 21 21 22
REMARK SMILES IDX 22 23 23 24 3 25 4 26 2 27 1 28
REMARK H PARENT
ROOT
ATOM      1  N   UNL     1      20.663  17.327  12.320  1.00  0.00    -0.298 NA
ATOM      2  N   UNL     1      23.033  15.311   7.153  1.00  0.00    -0.287 N 
ATOM      3  C   UNL     1      20.980  17.151  10.884  1.00  0.00     0.091 C 
ATOM      4  C   UNL     1      21.347  18.445  10.118  1.00  0.00    -0.026 C 
ATOM      5  C   UNL     1      22.073  16.039  10.699  1.00  0.00     0.061 C 
ATOM      6  C   UNL     1      21.381  19.790  12.216  1.00  0.00     0.116 C 
ATOM      7  C   UNL     1      21.437  18.421  12.938  1.00  0.00     0.102 C 
ATOM      8  C   UNL     1      22.408  15.913   9.246  1.00  0.00    -0.019 A 
ATOM      9  C   UNL     1      21.648  18.264   8.680  1.00  0.00    -0.011 A 
ATOM     10  C   UNL     1      22.175  16.994   8.371  1.00  0.00     0.011 A 
ATOM     11  C   UNL     1      21.501  19.636  10.725  1.00  0.00    -0.007 C 
ATOM     12  C   UNL     1      22.550  16.631   7.077  1.00  0.00     0.056 A 
ATOM     13  C   UNL     1      22.929  14.900   8.489  1.00  0.00     0.099 A 
ATOM     14  C   UNL     1      19.228  17.494  12.543  1.00  0.00     0.106 C 
ATOM     15  C   UNL     1      21.495  19.189   7.650  1.00  0.00     0.009 A 
ATOM     16  C   UNL     1      22.388  17.573   6.041  1.00  0.00     0.027 A 
ATOM     17  C   UNL     1      21.859  18.840   6.349  1.00  0.00     0.003 A 
ENDROOT
BRANCH   6  18
ATOM     18  C   UNL     1      20.264  20.702  12.789  1.00  0.00     0.230 C 
ATOM     19  O   UNL     1      20.221  20.962  13.995  1.00  0.00    -0.274 OA
ATOM     20  N   UNL     1      19.455  21.393  11.872  1.00  0.00    -0.343 N 
BRANCH  20  21
ATOM     21  C   UNL     1      18.442  20.612  11.147  1.00  0.00     0.116 C 
ATOM     22  C   UNL     1      18.134  21.145   9.752  1.00  0.00     0.027 C 
ENDBRANCH  20  21
BRANCH  20  23
ATOM     23  C   UNL     1      19.064  22.740  12.300  1.00  0.00     0.116 C 
ATOM     24  C   UNL     1      20.127  23.798  12.051  1.00  0.00     0.027 C 
ENDBRANCH  20  23
ENDBRANCH   6  18
BRANCH   2  25
ATOM     25  C   UNL     1      23.548  14.451   6.152  1.00  0.00     0.230 C 
ATOM     26  O   UNL     1      22.915  14.317   5.108  1.00  0.00    -0.274 OA
BRANCH  25  27
ATOM     27  C   UNL     1      24.848  13.756   6.444  1.00  0.00     0.097 C 
ATOM     28  C   UNL     1      24.631  12.322   6.906  1.00  0.00     0.014 C 
ENDBRANCH  25  27
ENDBRANCH   2  25
TORSDOF 5
ENDMDL
MODEL 3
REMARK VINA RESULT:    -9.469      1.116      1.292
REMARK INTER + INTRA:         -12.809
REMARK INTER:                 -12.119
REMARK INTRA:                  -0.690
REMARK UNBOUND:                -0.572
REMARK SMILES CCC(=O)n1cc2c3c(cccc31)C1=C[C@@H](C(=O)N(CC)CC)CN(C)[C@@H]1C2
REMARK SMILES IDX 25 1 5 2 27 3 14 4 28 5 16 6 24 7 7 8 9 9 8 10 15 11 13 12
REMARK SMILES IDX 6 13 26 14 10 15 12 16 11 17 17 18 18 19 19 20 20 21 21 22
REMARK SMILES IDX 22 23 23 24 3 25 4 26 2 27 1 28
REMARK H PARENT
ROOT
ATOM      1  N   UNL     1      19.873  17.559  11.131  1.00  0.00    -0.298 NA
ATOM      2  N   UNL     1      23.537  14.777   7.232  1.00  0.00    -0.287 N 
ATOM      3  C   UNL     1      20.571  17.156   9.889  1.00  0.00     0.091 C 
ATOM      4  C   UNL     1      21.162  18.314   9.049  1.00  0.00    -0.026 C 
ATOM      5  C   UNL     1      21.649  16.058  10.202  1.00  0.00     0.061 C 
ATOM      6  C   UNL     1      20.641  19.988  10.820  1.00  0.00     0.116 C 
ATOM      7  C   UNL     1      20.468  18.760  11.748  1.00  0.00     0.102 C 
ATOM      8  C   UNL     1      22.371  15.701   8.939  1.00  0.00    -0.019 A 
ATOM      9  C   UNL     1      21.845  17.905   7.802  1.00  0.00    -0.011 A 
ATOM     10  C   UNL     1      22.411  16.616   7.867  1.00  0.00     0.011 A 
ATOM     11  C   UNL     1      21.166  19.593   9.467  1.00  0.00    -0.007 C 
ATOM     12  C   UNL     1      23.121  16.053   6.806  1.00  0.00     0.056 A 
ATOM     13  C   UNL     1      23.060  14.591   8.536  1.00  0.00     0.099 A 
ATOM     14  C   UNL     1      18.436  17.723  10.918  1.00  0.00     0.106 C 
ATOM     15  C   UNL     1      22.002  18.642   6.630  1.00  0.00     0.009 A 
ATOM     16  C   UNL     1      23.271  16.806   5.623  1.00  0.00     0.027 A 
ATOM     17  C   UNL     1      22.704  18.092   5.557  1.00  0.00     0.003 A 
ENDROOT
BRANCH   6  18
ATOM     18  C   UNL     1      19.429  20.953  10.902  1.00  0.00     0.230 C 
ATOM     19  O   UNL     1      18.704  21.137   9.920  1.00  0.00    -0.274 OA
ATOM     20  N   UNL     1      19.059  21.426  12.172  1.00  0.00    -0.343 N 
BRANCH  20  21
ATOM     21  C   UNL     1      19.915  22.452  12.783  1.00  0.00     0.116 C 
ATOM     22  C   UNL     1      20.031  23.730  11.960  1.00  0.00     0.027 C 
ENDBRANCH  20  21
BRANCH  20  23
ATOM     23  C   UNL     1      17.613  21.574  12.368  1.00  0.00     0.116 C 
ATOM     24  C   UNL     1      17.181  21.521  13.825  1.00  0.00     0.027 C 
ENDBRANCH  20  23
ENDBRANCH   6  18
BRANCH   2  25
ATOM     25  C   UNL     1      24.292  13.777   6.569  1.00  0.00     0.230 C 
ATOM     26  O   UNL     1      24.160  13.649   5.355  1.00  0.00    -0.274 OA
BRANCH  25  27
ATOM     27  C   UNL     1      25.208  12.935   7.412  1.00  0.00     0.097 C 
ATOM     28  C   UNL     1      24.572  11.602   7.779  1.00  0.00     0.014 C 
ENDBRANCH  25  27
ENDBRANCH   2  25
TORSDOF 5
ENDMDL
MODEL 4
REMARK VINA RESULT:    -9.046      4.775      6.592
REMARK INTER + INTRA:         -12.262
REMARK INTER:                 -11.748
REMARK INTRA:                  -0.514
REMARK UNBOUND:                -0.572
REMARK SMILES CCC(=O)n1cc2c3c(cccc31)C1=C[C@@H](C(=O)N(CC)CC)CN(C)[C@@H]1C2
REMARK SMILES IDX 25 1 5 2 27 3 14 4 28 5 16 6 24 7 7 8 9 9 8 10 15 11 13 12
REMARK SMILES IDX 6 13 26 14 10 15 12 16 11 17 17 18 18 19 19 20 20 21 21 22
REMARK SMILES IDX 22 23 23 24 3 25 4 26 2 27 1 28
REMARK H PARENT
ROOT
ATOM      1  N   UNL     1      20.759  18.154  11.495  1.00  0.00    -0.298 NA
ATOM      2  N   UNL     1      24.152  18.253  16.480  1.00  0.00    -0.287 N 
ATOM      3  C   UNL     1      21.617  18.612  12.612  1.00  0.00     0.091 C 
ATOM      4  C   UNL     1      21.105  19.855  13.381  1.00  0.00    -0.026 C 
ATOM      5  C   UNL     1      21.930  17.419  13.583  1.00  0.00     0.061 C 
ATOM      6  C   UNL     1      18.935  19.836  12.156  1.00  0.00     0.116 C 
ATOM      7  C   UNL     1      19.326  18.393  11.751  1.00  0.00     0.102 C 
ATOM      8  C   UNL     1      22.759  17.917  14.726  1.00  0.00    -0.019 A 
ATOM      9  C   UNL     1      21.975  20.316  14.486  1.00  0.00    -0.011 A 
ATOM     10  C   UNL     1      22.727  19.282  15.079  1.00  0.00     0.011 A 
ATOM     11  C   UNL     1      19.904  20.415  13.149  1.00  0.00    -0.007 C 
ATOM     12  C   UNL     1      23.588  19.502  16.154  1.00  0.00     0.056 A 
ATOM     13  C   UNL     1      23.629  17.308  15.587  1.00  0.00     0.099 A 
ATOM     14  C   UNL     1      21.177  18.729  10.218  1.00  0.00     0.106 C 
ATOM     15  C   UNL     1      22.102  21.606  14.995  1.00  0.00     0.009 A 
ATOM     16  C   UNL     1      23.712  20.812  16.660  1.00  0.00     0.027 A 
ATOM     17  C   UNL     1      22.964  21.845  16.066  1.00  0.00     0.003 A 
ENDROOT
BRANCH   6  18
ATOM     18  C   UNL     1      18.518  20.690  10.930  1.00  0.00     0.230 C 
ATOM     19  O   UNL     1      18.143  20.149   9.885  1.00  0.00    -0.274 OA
ATOM     20  N   UNL     1      18.367  22.073  11.122  1.00  0.00    -0.343 N 
BRANCH  20  21
ATOM     21  C   UNL     1      19.593  22.871  11.258  1.00  0.00     0.116 C 
ATOM     22  C   UNL     1      19.646  23.710  12.530  1.00  0.00     0.027 C 
ENDBRANCH  20  21
BRANCH  20  23
ATOM     23  C   UNL     1      17.270  22.677  10.357  1.00  0.00     0.116 C 
ATOM     24  C   UNL     1      16.195  23.317  11.222  1.00  0.00     0.027 C 
ENDBRANCH  20  23
ENDBRANCH   6  18
BRANCH   2  25
ATOM     25  C   UNL     1      25.081  17.888  17.486  1.00  0.00     0.230 C 
ATOM     26  O   UNL     1      24.779  18.078  18.662  1.00  0.00    -0.274 OA
BRANCH  25  27
ATOM     27  C   UNL     1      26.384  17.289  17.036  1.00  0.00     0.097 C 
ATOM     28  C   UNL     1      27.033  18.113  15.934  1.00  0.00     0.014 C 
ENDBRANCH  25  27
ENDBRANCH   2  25
TORSDOF 5
ENDMDL
MODEL 5
REMARK VINA RESULT:    -8.532      5.644      7.409
REMARK INTER + INTRA:         -11.599
REMARK INTER:                 -10.925
REMARK INTRA:                  -0.674
REMARK UNBOUND:                -0.572
REMARK SMILES CCC(=O)n1cc2c3c(cccc31)C1=C[C@@H](C(=O)N(CC)CC)CN(C)[C@@H]1C2
REMARK SMILES IDX 25 1 5 2 27 3 14 4 28 5 16 6 24 7 7 8 9 9 8 10 15 11 13 12
REMARK SMILES IDX 6 13 26 14 10 15 12 16 11 17 17 18 18 19 19 20 20 21 21 22
REMARK SMILES IDX 22 23 23 24 3 25 4 26 2 27 1 28
REMARK H PARENT
ROOT
ATOM      1  N   UNL     1      20.707  23.569  14.897  1.00  0.00    -0.298 NA
ATOM      2  N   UNL     1      24.062  19.087  17.139  1.00  0.00    -0.287 N 
ATOM      3  C   UNL     1      21.220  22.223  15.240  1.00  0.00     0.091 C 
ATOM      4  C   UNL     1      21.359  21.239  14.054  1.00  0.00    -0.026 C 
ATOM      5  C   UNL     1      22.557  22.341  16.055  1.00  0.00     0.061 C 
ATOM      6  C   UNL     1      20.835  23.020  12.392  1.00  0.00     0.116 C 
ATOM      7  C   UNL     1      21.127  24.005  13.550  1.00  0.00     0.102 C 
ATOM      8  C   UNL     1      23.077  20.968  16.350  1.00  0.00    -0.019 A 
ATOM      9  C   UNL     1      21.858  19.890  14.407  1.00  0.00    -0.011 A 
ATOM     10  C   UNL     1      22.699  19.880  15.537  1.00  0.00     0.011 A 
ATOM     11  C   UNL     1      21.158  21.602  12.774  1.00  0.00    -0.007 C 
ATOM     12  C   UNL     1      23.295  18.714  16.019  1.00  0.00     0.056 A 
ATOM     13  C   UNL     1      23.905  20.468  17.317  1.00  0.00     0.099 A 
ATOM     14  C   UNL     1      19.257  23.657  15.059  1.00  0.00     0.106 C 
ATOM     15  C   UNL     1      21.611  18.687  13.750  1.00  0.00     0.009 A 
ATOM     16  C   UNL     1      23.037  17.501  15.349  1.00  0.00     0.027 A 
ATOM     17  C   UNL     1      22.194  17.511  14.222  1.00  0.00     0.003 A 
ENDROOT
BRANCH   6  18
ATOM     18  C   UNL     1      19.477  23.320  11.703  1.00  0.00     0.230 C 
ATOM     19  O   UNL     1      19.339  24.322  10.995  1.00  0.00    -0.274 OA
ATOM     20  N   UNL     1      18.498  22.314  11.728  1.00  0.00    -0.343 N 
BRANCH  20  21
ATOM     21  C   UNL     1      17.800  22.086  13.001  1.00  0.00     0.116 C 
ATOM     22  C   UNL     1      17.655  20.614  13.372  1.00  0.00     0.027 C 
ENDBRANCH  20  21
BRANCH  20  23
ATOM     23  C   UNL     1      17.688  22.221  10.509  1.00  0.00     0.116 C 
ATOM     24  C   UNL     1      18.035  21.031   9.628  1.00  0.00     0.027 C 
ENDBRANCH  20  23
ENDBRANCH   6  18
BRANCH   2  25
ATOM     25  C   UNL     1      24.876  18.316  18.005  1.00  0.00     0.230 C 
ATOM     26  O   UNL     1      24.535  18.193  19.179  1.00  0.00    -0.274 OA
BRANCH  25  27
ATOM     27  C   UNL     1      26.114  17.699  17.418  1.00  0.00     0.097 C 
ATOM     28  C   UNL     1      25.991  16.187  17.302  1.00  0.00     0.014 C 
ENDBRANCH  25  27
ENDBRANCH   2  25
TORSDOF 5
ENDMDL
MODEL 6
REMARK VINA RESULT:    -8.517      2.828      8.602
REMARK INTER + INTRA:         -11.579
REMARK INTER:                 -11.192
REMARK INTRA:                  -0.387
REMARK UNBOUND:                -0.572
REMARK SMILES CCC(=O)n1cc2c3c(cccc31)C1=C[C@@H](C(=O)N(CC)CC)CN(C)[C@@H]1C2
REMARK SMILES IDX 25 1 5 2 27 3 14 4 28 5 16 6 24 7 7 8 9 9 8 10 15 11 13 12
REMARK SMILES IDX 6 13 26 14 10 15 12 16 11 17 17 18 18 19 19 20 20 21 21 22
REMARK SMILES IDX 22 23 23 24 3 25 4 26 2 27 1 28
REMARK H PARENT
ROOT
ATOM      1  N   UNL     1      20.981  17.947  12.136  1.00  0.00    -0.298 NA
ATOM      2  N   UNL     1      16.567  21.809  13.540  1.00  0.00    -0.287 N 
ATOM      3  C   UNL     1      20.081  19.123  12.142  1.00  0.00     0.091 C 
ATOM      4  C   UNL     1      19.484  19.515  10.769  1.00  0.00    -0.026 C 
ATOM      5  C   UNL     1      18.963  18.947  13.231  1.00  0.00     0.061 C 
ATOM      6  C   UNL     1      20.398  17.467   9.682  1.00  0.00     0.116 C 
ATOM      7  C   UNL     1      20.590  16.944  11.127  1.00  0.00     0.102 C 
ATOM      8  C   UNL     1      18.041  20.126  13.186  1.00  0.00    -0.019 A 
ATOM      9  C   UNL     1      18.597  20.700  10.780  1.00  0.00    -0.011 A 
ATOM     10  C   UNL     1      17.933  20.893  12.008  1.00  0.00     0.011 A 
ATOM     11  C   UNL     1      19.654  18.774   9.658  1.00  0.00    -0.007 C 
ATOM     12  C   UNL     1      17.032  21.938  12.218  1.00  0.00     0.056 A 
ATOM     13  C   UNL     1      17.205  20.697  14.106  1.00  0.00     0.099 A 
ATOM     14  C   UNL     1      22.382  18.336  11.988  1.00  0.00     0.106 C 
ATOM     15  C   UNL     1      18.344  21.590   9.739  1.00  0.00     0.009 A 
ATOM     16  C   UNL     1      16.785  22.835  11.159  1.00  0.00     0.027 A 
ATOM     17  C   UNL     1      17.451  22.643   9.934  1.00  0.00     0.003 A 
ENDROOT
BRANCH   6  18
ATOM     18  C   UNL     1      21.692  17.325   8.837  1.00  0.00     0.230 C 
ATOM     19  O   UNL     1      22.561  16.506   9.150  1.00  0.00    -0.274 OA
ATOM     20  N   UNL     1      21.736  17.987   7.599  1.00  0.00    -0.343 N 
BRANCH  20  21
ATOM     21  C   UNL     1      21.913  19.446   7.623  1.00  0.00     0.116 C 
ATOM     22  C   UNL     1      21.476  20.142   6.338  1.00  0.00     0.027 C 
ENDBRANCH  20  21
BRANCH  20  23
ATOM     23  C   UNL     1      22.443  17.256   6.542  1.00  0.00     0.116 C 
ATOM     24  C   UNL     1      21.720  16.005   6.070  1.00  0.00     0.027 C 
ENDBRANCH  20  23
ENDBRANCH   6  18
BRANCH   2  25
ATOM     25  C   UNL     1      15.639  22.585  14.278  1.00  0.00     0.230 C 
ATOM     26  O   UNL     1      16.046  23.231  15.241  1.00  0.00    -0.274 OA
BRANCH  25  27
ATOM     27  C   UNL     1      14.207  22.560  13.825  1.00  0.00     0.097 C 
ATOM     28  C   UNL     1      13.257  22.240  14.971  1.00  0.00     0.014 C 
ENDBRANCH  25  27
ENDBRANCH   2  25
TORSDOF 5
ENDMDL
MODEL 7
REMARK VINA RESULT:    -8.269      5.177      6.866
REMARK INTER + INTRA:         -11.258
REMARK INTER:                 -10.453
REMARK INTRA:                  -0.805
REMARK UNBOUND:                -0.572
REMARK SMILES CCC(=O)n1cc2c3c(cccc31)C1=C[C@@H](C(=O)N(CC)CC)CN(C)[C@@H]1C2
REMARK SMILES IDX 25 1 5 2 27 3 14 4 28 5 16 6 24 7 7 8 9 9 8 10 15 11 13 12
REMARK SMILES IDX 6 13 26 14 10 15 12 16 11 17 17 18 18 19 19 20 20 21 21 22
REMARK SMILES IDX 22 23 23 24 3 25 4 26 2 27 1 28
REMARK H PARENT
ROOT
ATOM      1  N   UNL     1      19.642  19.884  12.062  1.00  0.00    -0.298 NA
ATOM      2  N   UNL     1      23.852  17.915  15.905  1.00  0.00    -0.287 N 
ATOM      3  C   UNL     1      20.780  19.836  13.008  1.00  0.00     0.091 C 
ATOM      4  C   UNL     1      20.731  20.862  14.166  1.00  0.00    -0.026 C 
ATOM      5  C   UNL     1      20.985  18.372  13.539  1.00  0.00     0.061 C 
ATOM      6  C   UNL     1      18.424  21.579  13.556  1.00  0.00     0.116 C 
ATOM      7  C   UNL     1      18.380  20.278  12.718  1.00  0.00     0.102 C 
ATOM      8  C   UNL     1      22.110  18.359  14.527  1.00  0.00    -0.019 A 
ATOM      9  C   UNL     1      21.879  20.817  15.099  1.00  0.00    -0.011 A 
ATOM     10  C   UNL     1      22.467  19.541  15.207  1.00  0.00     0.011 A 
ATOM     11  C   UNL     1      19.673  21.662  14.390  1.00  0.00    -0.007 C 
ATOM     12  C   UNL     1      23.545  19.280  16.054  1.00  0.00     0.056 A 
ATOM     13  C   UNL     1      22.962  17.381  14.963  1.00  0.00     0.099 A 
ATOM     14  C   UNL     1      19.932  20.733  10.907  1.00  0.00     0.106 C 
ATOM     15  C   UNL     1      22.399  21.856  15.867  1.00  0.00     0.009 A 
ATOM     16  C   UNL     1      24.066  20.340  16.825  1.00  0.00     0.027 A 
ATOM     17  C   UNL     1      23.480  21.614  16.714  1.00  0.00     0.003 A 
ENDROOT
BRANCH   6  18
ATOM     18  C   UNL     1      17.991  22.818  12.728  1.00  0.00     0.230 C 
ATOM     19  O   UNL     1      18.805  23.703  12.447  1.00  0.00    -0.274 OA
ATOM     20  N   UNL     1      16.722  22.786  12.126  1.00  0.00    -0.343 N 
BRANCH  20  21
ATOM     21  C   UNL     1      15.557  22.968  13.003  1.00  0.00     0.116 C 
ATOM     22  C   UNL     1      14.226  23.010  12.260  1.00  0.00     0.027 C 
ENDBRANCH  20  21
BRANCH  20  23
ATOM     23  C   UNL     1      16.659  23.424  10.807  1.00  0.00     0.116 C 
ATOM     24  C   UNL     1      17.174  22.551   9.674  1.00  0.00     0.027 C 
ENDBRANCH  20  23
ENDBRANCH   6  18
BRANCH   2  25
ATOM     25  C   UNL     1      24.844  17.113  16.523  1.00  0.00     0.230 C 
ATOM     26  O   UNL     1      24.502  16.061  17.056  1.00  0.00    -0.274 OA
BRANCH  25  27
ATOM     27  C   UNL     1      26.259  17.617  16.483  1.00  0.00     0.097 C 
ATOM     28  C   UNL     1      26.894  17.628  17.867  1.00  0.00     0.014 C 
ENDBRANCH  25  27
ENDBRANCH   2  25
TORSDOF 5
ENDMDL
MODEL 8
REMARK VINA RESULT:    -8.130      3.067      8.839
REMARK INTER + INTRA:         -11.079
REMARK INTER:                 -10.547
REMARK INTRA:                  -0.532
REMARK UNBOUND:                -0.572
REMARK SMILES CCC(=O)n1cc2c3c(cccc31)C1=C[C@@H](C(=O)N(CC)CC)CN(C)[C@@H]1C2
REMARK SMILES IDX 25 1 5 2 27 3 14 4 28 5 16 6 24 7 7 8 9 9 8 10 15 11 13 12
REMARK SMILES IDX 6 13 26 14 10 15 12 16 11 17 17 18 18 19 19 20 20 21 21 22
REMARK SMILES IDX 22 23 23 24 3 25 4 26 2 27 1 28
REMARK H PARENT
ROOT
ATOM      1  N   UNL     1      19.086  18.075  11.558  1.00  0.00    -0.298 NA
ATOM      2  N   UNL     1      18.252  22.971  14.978  1.00  0.00    -0.287 N 
ATOM      3  C   UNL     1      19.329  19.280  12.383  1.00  0.00     0.091 C 
ATOM      4  C   UNL     1      20.296  20.324  11.774  1.00  0.00    -0.026 C 
ATOM      5  C   UNL     1      17.965  19.933  12.808  1.00  0.00     0.061 C 
ATOM      6  C   UNL     1      20.390  19.107   9.602  1.00  0.00     0.116 C 
ATOM      7  C   UNL     1      19.130  18.364  10.111  1.00  0.00     0.102 C 
ATOM      8  C   UNL     1      18.237  21.173  13.602  1.00  0.00    -0.019 A 
ATOM      9  C   UNL     1      20.545  21.519  12.611  1.00  0.00    -0.011 A 
ATOM     10  C   UNL     1      19.466  21.849  13.456  1.00  0.00     0.011 A 
ATOM     11  C   UNL     1      20.790  20.223  10.526  1.00  0.00    -0.007 C 
ATOM     12  C   UNL     1      19.488  22.956  14.305  1.00  0.00     0.056 A 
ATOM     13  C   UNL     1      17.513  21.869  14.530  1.00  0.00     0.099 A 
ATOM     14  C   UNL     1      19.991  16.983  11.912  1.00  0.00     0.106 C 
ATOM     15  C   UNL     1      21.677  22.330  12.631  1.00  0.00     0.009 A 
ATOM     16  C   UNL     1      20.640  23.769  14.319  1.00  0.00     0.027 A 
ATOM     17  C   UNL     1      21.719  23.437  13.479  1.00  0.00     0.003 A 
ENDROOT
BRANCH   6  18
ATOM     18  C   UNL     1      21.480  18.122   9.100  1.00  0.00     0.230 C 
ATOM     19  O   UNL     1      22.056  17.366   9.888  1.00  0.00    -0.274 OA
ATOM     20  N   UNL     1      21.623  17.964   7.711  1.00  0.00    -0.343 N 
BRANCH  20  21
ATOM     21  C   UNL     1      22.273  19.057   6.974  1.00  0.00     0.116 C 
ATOM     22  C   UNL     1      21.296  19.997   6.275  1.00  0.00     0.027 C 
ENDBRANCH  20  21
BRANCH  20  23
ATOM     23  C   UNL     1      21.948  16.599   7.284  1.00  0.00     0.116 C 
ATOM     24  C   UNL     1      22.998  16.530   6.187  1.00  0.00     0.027 C 
ENDBRANCH  20  23
ENDBRANCH   6  18
BRANCH   2  25
ATOM     25  C   UNL     1      17.733  23.868  15.944  1.00  0.00     0.230 C 
ATOM     26  O   UNL     1      17.408  24.997  15.585  1.00  0.00    -0.274 OA
BRANCH  25  27
ATOM     27  C   UNL     1      17.617  23.368  17.357  1.00  0.00     0.097 C 
ATOM     28  C   UNL     1      18.965  23.356  18.064  1.00  0.00     0.014 C 
ENDBRANCH  25  27
ENDBRANCH   2  25
TORSDOF 5
ENDMDL
MODEL 9
REMARK VINA RESULT:    -8.033      2.791      5.001
REMARK INTER + INTRA:         -10.953
REMARK INTER:                 -10.150
REMARK INTRA:                  -0.803
REMARK UNBOUND:                -0.572
REMARK SMILES CCC(=O)n1cc2c3c(cccc31)C1=C[C@@H](C(=O)N(CC)CC)CN(C)[C@@H]1C2
REMARK SMILES IDX 25 1 5 2 27 3 14 4 28 5 16 6 24 7 7 8 9 9 8 10 15 11 13 12
REMARK SMILES IDX 6 13 26 14 10 15 12 16 11 17 17 18 18 19 19 20 20 21 21 22
REMARK SMILES IDX 22 23 23 24 3 25 4 26 2 27 1 28
REMARK H PARENT
ROOT
ATOM      1  N   UNL     1      18.439  22.336  11.285  1.00  0.00    -0.298 NA
ATOM      2  N   UNL     1      21.540  17.370   9.837  1.00  0.00    -0.287 N 
ATOM      3  C   UNL     1      19.506  21.314  11.190  1.00  0.00     0.091 C 
ATOM      4  C   UNL     1      20.110  20.851  12.538  1.00  0.00    -0.026 C 
ATOM      5  C   UNL     1      19.019  20.096  10.325  1.00  0.00     0.061 C 
ATOM      6  C   UNL     1      18.410  22.121  13.843  1.00  0.00     0.116 C 
ATOM      7  C   UNL     1      17.627  22.190  12.509  1.00  0.00     0.102 C 
ATOM      8  C   UNL     1      20.097  19.059  10.282  1.00  0.00    -0.019 A 
ATOM      9  C   UNL     1      21.187  19.840  12.434  1.00  0.00    -0.011 A 
ATOM     10  C   UNL     1      21.072  19.011  11.300  1.00  0.00     0.011 A 
ATOM     11  C   UNL     1      19.624  21.241  13.730  1.00  0.00    -0.007 C 
ATOM     12  C   UNL     1      21.970  17.977  11.032  1.00  0.00     0.056 A 
ATOM     13  C   UNL     1      20.397  18.055   9.403  1.00  0.00     0.099 A 
ATOM     14  C   UNL     1      18.971  23.691  11.155  1.00  0.00     0.106 C 
ATOM     15  C   UNL     1      22.241  19.618  13.316  1.00  0.00     0.009 A 
ATOM     16  C   UNL     1      23.036  17.763  11.930  1.00  0.00     0.027 A 
ATOM     17  C   UNL     1      23.152  18.593  13.060  1.00  0.00     0.003 A 
ENDROOT
BRANCH   6  18
ATOM     18  C   UNL     1      18.553  23.517  14.504  1.00  0.00     0.230 C 
ATOM     19  O   UNL     1      17.570  24.251  14.645  1.00  0.00    -0.274 OA
ATOM     20  N   UNL     1      19.774  23.817  15.131  1.00  0.00    -0.343 N 
BRANCH  20  21
ATOM     21  C   UNL     1      20.921  24.113  14.261  1.00  0.00     0.116 C 
ATOM     22  C   UNL     1      22.255  23.615  14.809  1.00  0.00     0.027 C 
ENDBRANCH  20  21
BRANCH  20  23
ATOM     23  C   UNL     1      19.650  24.621  16.352  1.00  0.00     0.116 C 
ATOM     24  C   UNL     1      19.459  23.796  17.615  1.00  0.00     0.027 C 
ENDBRANCH  20  23
ENDBRANCH   6  18
BRANCH   2  25
ATOM     25  C   UNL     1      22.068  16.275   9.109  1.00  0.00     0.230 C 
ATOM     26  O   UNL     1      22.334  15.240   9.714  1.00  0.00    -0.274 OA
BRANCH  25  27
ATOM     27  C   UNL     1      22.269  16.464   7.632  1.00  0.00     0.097 C 
ATOM     28  C   UNL     1      23.360  15.551   7.089  1.00  0.00     0.014 C 
ENDBRANCH  25  27
ENDBRANCH   2  25
TORSDOF 5
ENDMDL
MODEL 10
REMARK VINA RESULT:    -7.833      3.996      9.786
REMARK INTER + INTRA:         -10.695
REMARK INTER:                  -9.719
REMARK INTRA:                  -0.976
REMARK UNBOUND:                -0.572
REMARK SMILES CCC(=O)n1cc2c3c(cccc31)C1=C[C@@H](C(=O)N(CC)CC)CN(C)[C@@H]1C2
REMARK SMILES IDX 25 1 5 2 27 3 14 4 28 5 16 6 24 7 7 8 9 9 8 10 15 11 13 12
REMARK SMILES IDX 6 13 26 14 10 15 12 16 11 17 17 18 18 19 19 20 20 21 21 22
REMARK SMILES IDX 22 23 23 24 3 25 4 26 2 27 1 28
REMARK H PARENT
ROOT
ATOM      1  N   UNL     1      22.346  20.517  13.597  1.00  0.00    -0.298 NA
ATOM      2  N   UNL     1      18.341  24.150  16.268  1.00  0.00    -0.287 N 
ATOM      3  C   UNL     1      21.147  21.345  13.866  1.00  0.00     0.091 C 
ATOM      4  C   UNL     1      19.787  20.660  13.588  1.00  0.00    -0.026 C 
ATOM      5  C   UNL     1      21.210  21.940  15.318  1.00  0.00     0.061 C 
ATOM      6  C   UNL     1      20.874  18.457  13.172  1.00  0.00     0.116 C 
ATOM      7  C   UNL     1      22.112  19.084  13.860  1.00  0.00     0.102 C 
ATOM      8  C   UNL     1      19.968  22.733  15.581  1.00  0.00    -0.019 A 
ATOM      9  C   UNL     1      18.594  21.498  13.845  1.00  0.00    -0.011 A 
ATOM     10  C   UNL     1      18.793  22.468  14.848  1.00  0.00     0.011 A 
ATOM     11  C   UNL     1      19.676  19.362  13.251  1.00  0.00    -0.007 C 
ATOM     12  C   UNL     1      17.785  23.341  15.259  1.00  0.00     0.056 A 
ATOM     13  C   UNL     1      19.675  23.757  16.439  1.00  0.00     0.099 A 
ATOM     14  C   UNL     1      22.865  20.735  12.248  1.00  0.00     0.106 C 
ATOM     15  C   UNL     1      17.342  21.413  13.242  1.00  0.00     0.009 A 
ATOM     16  C   UNL     1      16.522  23.249  14.639  1.00  0.00     0.027 A 
ATOM     17  C   UNL     1      16.325  22.282  13.636  1.00  0.00     0.003 A 
ENDROOT
BRANCH   6  18
ATOM     18  C   UNL     1      21.235  17.807  11.811  1.00  0.00     0.230 C 
ATOM     19  O   UNL     1      22.070  16.899  11.748  1.00  0.00    -0.274 OA
ATOM     20  N   UNL     1      20.429  18.123  10.705  1.00  0.00    -0.343 N 
BRANCH  20  21
ATOM     21  C   UNL     1      20.596  19.457  10.110  1.00  0.00     0.116 C 
ATOM     22  C   UNL     1      19.288  20.107   9.674  1.00  0.00     0.027 C 
ENDBRANCH  20  21
BRANCH  20  23
ATOM     23  C   UNL     1      20.209  17.012   9.774  1.00  0.00     0.116 C 
ATOM     24  C   UNL     1      18.909  16.259  10.009  1.00  0.00     0.027 C 
ENDBRANCH  20  23
ENDBRANCH   6  18
BRANCH   2  25
ATOM     25  C   UNL     1      17.772  25.194  17.039  1.00  0.00     0.230 C 
ATOM     26  O   UNL     1      17.514  26.261  16.486  1.00  0.00    -0.274 OA
BRANCH  25  27
ATOM     27  C   UNL     1      17.524  24.919  18.495  1.00  0.00     0.097 C 
ATOM     28  C   UNL     1      16.650  23.689  18.697  1.00  0.00     0.014 C 
ENDBRANCH  25  27
ENDBRANCH   2  25
TORSDOF 5
ENDMDL
MODEL 11
REMARK VINA RESULT:    -7.828      3.938      9.841
REMARK INTER + INTRA:         -10.688
REMARK INTER:                  -9.719
REMARK INTRA:                  -0.969
REMARK UNBOUND:                -0.572
REMARK SMILES CCC(=O)n1cc2c3c(cccc31)C1=C[C@@H](C(=O)N(CC)CC)CN(C)[C@@H]1C2
REMARK SMILES IDX 25 1 5 2 27 3 14 4 28 5 16 6 24 7 7 8 9 9 8 10 15 11 13 12
REMARK SMILES IDX 6 13 26 14 10 15 12 16 11 17 17 18 18 19 19 20 20 21 21 22
REMARK SMILES IDX 22 23 23 24 3 25 4 26 2 27 1 28
REMARK H PARENT
ROOT
ATOM      1  N   UNL     1      18.438  19.459  12.738  1.00  0.00    -0.298 NA
ATOM      2  N   UNL     1      17.738  24.012  16.630  1.00  0.00    -0.287 N 
ATOM      3  C   UNL     1      18.713  20.553  13.698  1.00  0.00     0.091 C 
ATOM      4  C   UNL     1      19.769  21.590  13.245  1.00  0.00    -0.026 C 
ATOM      5  C   UNL     1      17.372  21.244  14.135  1.00  0.00     0.061 C 
ATOM      6  C   UNL     1      19.894  20.604  10.960  1.00  0.00     0.116 C 
ATOM      7  C   UNL     1      18.568  19.896  11.334  1.00  0.00     0.102 C 
ATOM      8  C   UNL     1      17.680  22.373  15.068  1.00  0.00    -0.019 A 
ATOM      9  C   UNL     1      20.049  22.672  14.216  1.00  0.00    -0.011 A 
ATOM     10  C   UNL     1      18.953  22.980  15.046  1.00  0.00     0.011 A 
ATOM     11  C   UNL     1      20.315  21.589  12.015  1.00  0.00    -0.007 C 
ATOM     12  C   UNL     1      19.001  23.988  16.010  1.00  0.00     0.056 A 
ATOM     13  C   UNL     1      16.956  23.013  16.036  1.00  0.00     0.099 A 
ATOM     14  C   UNL     1      19.258  18.280  13.009  1.00  0.00     0.106 C 
ATOM     15  C   UNL     1      21.226  23.401  14.369  1.00  0.00     0.009 A 
ATOM     16  C   UNL     1      20.198  24.718  16.160  1.00  0.00     0.027 A 
ATOM     17  C   UNL     1      21.293  24.407  15.333  1.00  0.00     0.003 A 
ENDROOT
BRANCH   6  18
ATOM     18  C   UNL     1      20.945  19.610  10.400  1.00  0.00     0.230 C 
ATOM     19  O   UNL     1      21.903  19.250  11.091  1.00  0.00    -0.274 OA
ATOM     20  N   UNL     1      20.651  18.969   9.185  1.00  0.00    -0.343 N 
BRANCH  20  21
ATOM     21  C   UNL     1      20.758  19.772   7.958  1.00  0.00     0.116 C 
ATOM     22  C   UNL     1      21.905  19.353   7.044  1.00  0.00     0.027 C 
ENDBRANCH  20  21
BRANCH  20  23
ATOM     23  C   UNL     1      21.110  17.579   9.103  1.00  0.00     0.116 C 
ATOM     24  C   UNL     1      20.123  16.570   9.670  1.00  0.00     0.027 C 
ENDBRANCH  20  23
ENDBRANCH   6  18
BRANCH   2  25
ATOM     25  C   UNL     1      17.227  24.835  17.665  1.00  0.00     0.230 C 
ATOM     26  O   UNL     1      16.988  26.014  17.417  1.00  0.00    -0.274 OA
BRANCH  25  27
ATOM     27  C   UNL     1      17.015  24.197  19.010  1.00  0.00     0.097 C 
ATOM     28  C   UNL     1      18.202  23.336  19.420  1.00  0.00     0.014 C 
ENDBRANCH  25  27
ENDBRANCH   2  25
TORSDOF 5
ENDMDL
MODEL 12
REMARK VINA RESULT:    -7.807      4.838      8.999
REMARK INTER + INTRA:         -10.662
REMARK INTER:                 -10.346
REMARK INTRA:                  -0.316
REMARK UNBOUND:                -0.572
REMARK SMILES CCC(=O)n1cc2c3c(cccc31)C1=C[C@@H](C(=O)N(CC)CC)CN(C)[C@@H]1C2
REMARK SMILES IDX 25 1 5 2 27 3 14 4 28 5 16 6 24 7 7 8 9 9 8 10 15 11 13 12
REMARK SMILES IDX 6 13 26 14 10 15 12 16 11 17 17 18 18 19 19 20 20 21 21 22
REMARK SMILES IDX 22 23 23 24 3 25 4 26 2 27 1 28
REMARK H PARENT
ROOT
ATOM      1  N   UNL     1      22.433  18.087  13.511  1.00  0.00    -0.298 NA
ATOM      2  N   UNL     1      18.453  21.753  10.848  1.00  0.00    -0.287 N 
ATOM      3  C   UNL     1      21.364  19.086  13.284  1.00  0.00     0.091 C 
ATOM      4  C   UNL     1      21.522  20.421  14.051  1.00  0.00    -0.026 C 
ATOM      5  C   UNL     1      21.158  19.323  11.745  1.00  0.00     0.061 C 
ATOM      6  C   UNL     1      23.799  19.800  14.851  1.00  0.00     0.116 C 
ATOM      7  C   UNL     1      23.748  18.714  13.748  1.00  0.00     0.102 C 
ATOM      8  C   UNL     1      20.105  20.369  11.544  1.00  0.00    -0.019 A 
ATOM      9  C   UNL     1      20.442  21.409  13.831  1.00  0.00    -0.011 A 
ATOM     10  C   UNL     1      19.829  21.299  12.566  1.00  0.00     0.011 A 
ATOM     11  C   UNL     1      22.614  20.723  14.777  1.00  0.00    -0.007 C 
ATOM     12  C   UNL     1      18.807  22.153  12.151  1.00  0.00     0.056 A 
ATOM     13  C   UNL     1      19.261  20.660  10.508  1.00  0.00     0.099 A 
ATOM     14  C   UNL     1      22.086  17.154  14.581  1.00  0.00     0.106 C 
ATOM     15  C   UNL     1      20.005  22.408  14.697  1.00  0.00     0.009 A 
ATOM     16  C   UNL     1      18.370  23.160  13.036  1.00  0.00     0.027 A 
ATOM     17  C   UNL     1      18.980  23.267  14.300  1.00  0.00     0.003 A 
ENDROOT
BRANCH   6  18
ATOM     18  C   UNL     1      24.205  19.209  16.227  1.00  0.00     0.230 C 
ATOM     19  O   UNL     1      23.708  19.645  17.270  1.00  0.00    -0.274 OA
ATOM     20  N   UNL     1      24.970  18.032  16.229  1.00  0.00    -0.343 N 
BRANCH  20  21
ATOM     21  C   UNL     1      26.389  18.151  15.864  1.00  0.00     0.116 C 
ATOM     22  C   UNL     1      27.349  17.731  16.971  1.00  0.00     0.027 C 
ENDBRANCH  20  21
BRANCH  20  23
ATOM     23  C   UNL     1      24.647  17.098  17.313  1.00  0.00     0.116 C 
ATOM     24  C   UNL     1      24.517  15.652  16.861  1.00  0.00     0.027 C 
ENDBRANCH  20  23
ENDBRANCH   6  18
BRANCH   2  25
ATOM     25  C   UNL     1      17.487  22.269   9.949  1.00  0.00     0.230 C 
ATOM     26  O   UNL     1      17.212  21.618   8.944  1.00  0.00    -0.274 OA
BRANCH  25  27
ATOM     27  C   UNL     1      16.861  23.591  10.294  1.00  0.00     0.097 C 
ATOM     28  C   UNL     1      17.444  24.725   9.463  1.00  0.00     0.014 C 
ENDBRANCH  25  27
ENDBRANCH   2  25
TORSDOF 5
ENDMDL
MODEL 13
REMARK VINA RESULT:    -7.801      6.424      9.130
REMARK INTER + INTRA:         -10.653
REMARK INTER:                  -9.882
REMARK INTRA:                  -0.770
REMARK UNBOUND:                -0.572
REMARK SMILES CCC(=O)n1cc2c3c(cccc31)C1=C[C@@H](C(=O)N(CC)CC)CN(C)[C@@H]1C2
REMARK SMILES IDX 25 1 5 2 27 3 14 4 28 5 16 6 24 7 7 8 9 9 8 10 15 11 13 12
REMARK SMILES IDX 6 13 26 14 10 15 12 16 11 17 17 18 18 19 19 20 20 21 21 22
REMARK SMILES IDX 22 23 23 24 3 25 4 26 2 27 1 28
REMARK H PARENT
ROOT
ATOM      1  N   UNL     1      21.124  21.011  14.090  1.00  0.00    -0.298 NA
ATOM      2  N   UNL     1      24.358  19.900  19.057  1.00  0.00    -0.287 N 
ATOM      3  C   UNL     1      21.869  20.318  15.165  1.00  0.00     0.091 C 
ATOM      4  C   UNL     1      22.937  19.303  14.689  1.00  0.00    -0.026 C 
ATOM      5  C   UNL     1      22.471  21.362  16.172  1.00  0.00     0.061 C 
ATOM      6  C   UNL     1      22.664  19.987  12.309  1.00  0.00     0.116 C 
ATOM      7  C   UNL     1      21.947  21.233  12.885  1.00  0.00     0.102 C 
ATOM      8  C   UNL     1      23.257  20.640  17.221  1.00  0.00    -0.019 A 
ATOM      9  C   UNL     1      23.668  18.602  15.769  1.00  0.00    -0.011 A 
ATOM     10  C   UNL     1      23.776  19.356  16.956  1.00  0.00     0.011 A 
ATOM     11  C   UNL     1      23.270  19.143  13.396  1.00  0.00    -0.007 C 
ATOM     12  C   UNL     1      24.450  18.887  18.084  1.00  0.00     0.056 A 
ATOM     13  C   UNL     1      23.620  20.954  18.502  1.00  0.00     0.099 A 
ATOM     14  C   UNL     1      19.875  20.324  13.765  1.00  0.00     0.106 C 
ATOM     15  C   UNL     1      24.257  17.341  15.727  1.00  0.00     0.009 A 
ATOM     16  C   UNL     1      25.040  17.608  18.031  1.00  0.00     0.027 A 
ATOM     17  C   UNL     1      24.930  16.855  16.848  1.00  0.00     0.003 A 
ENDROOT
BRANCH   6  18
ATOM     18  C   UNL     1      21.825  19.296  11.202  1.00  0.00     0.230 C 
ATOM     19  O   UNL     1      21.264  19.964  10.328  1.00  0.00    -0.274 OA
ATOM     20  N   UNL     1      21.912  17.898  11.098  1.00  0.00    -0.343 N 
BRANCH  20  21
ATOM     21  C   UNL     1      21.216  17.103  12.119  1.00  0.00     0.116 C 
ATOM     22  C   UNL     1      19.696  17.209  12.055  1.00  0.00     0.027 C 
ENDBRANCH  20  21
BRANCH  20  23
ATOM     23  C   UNL     1      21.868  17.386   9.724  1.00  0.00     0.116 C 
ATOM     24  C   UNL     1      22.280  15.928   9.596  1.00  0.00     0.027 C 
ENDBRANCH  20  23
ENDBRANCH   6  18
BRANCH   2  25
ATOM     25  C   UNL     1      24.864  19.966  20.379  1.00  0.00     0.230 C 
ATOM     26  O   UNL     1      26.081  19.960  20.545  1.00  0.00    -0.274 OA
BRANCH  25  27
ATOM     27  C   UNL     1      23.862  20.038  21.497  1.00  0.00     0.097 C 
ATOM     28  C   UNL     1      22.839  18.913  21.412  1.00  0.00     0.014 C 
ENDBRANCH  25  27
ENDBRANCH   2  25
TORSDOF 5
ENDMDL
MODEL 14
REMARK VINA RESULT:    -7.700      3.993      9.762
REMARK INTER + INTRA:         -10.524
REMARK INTER:                  -9.743
REMARK INTRA:                  -0.781
REMARK UNBOUND:                -0.572
REMARK SMILES CCC(=O)n1cc2c3c(cccc31)C1=C[C@@H](C(=O)N(CC)CC)CN(C)[C@@H]1C2
REMARK SMILES IDX 25 1 5 2 27 3 14 4 28 5 16 6 24 7 7 8 9 9 8 10 15 11 13 12
REMARK SMILES IDX 6 13 26 14 10 15 12 16 11 17 17 18 18 19 19 20 20 21 21 22
REMARK SMILES IDX 22 23 23 24 3 25 4 26 2 27 1 28
REMARK H PARENT
ROOT
ATOM      1  N   UNL     1      17.481  21.063  12.906  1.00  0.00    -0.298 NA
ATOM      2  N   UNL     1      19.983  24.646  17.062  1.00  0.00    -0.287 N 
ATOM      3  C   UNL     1      18.431  21.650  13.879  1.00  0.00     0.091 C 
ATOM      4  C   UNL     1      19.872  21.870  13.356  1.00  0.00    -0.026 C 
ATOM      5  C   UNL     1      17.833  22.964  14.498  1.00  0.00     0.061 C 
ATOM      6  C   UNL     1      19.220  21.266  11.028  1.00  0.00     0.116 C 
ATOM      7  C   UNL     1      17.766  21.477  11.519  1.00  0.00     0.102 C 
ATOM      8  C   UNL     1      18.830  23.562  15.442  1.00  0.00    -0.019 A 
ATOM      9  C   UNL     1      20.819  22.444  14.338  1.00  0.00    -0.011 A 
ATOM     10  C   UNL     1      20.201  23.265  15.302  1.00  0.00     0.011 A 
ATOM     11  C   UNL     1      20.223  21.669  12.073  1.00  0.00    -0.007 C 
ATOM     12  C   UNL     1      20.921  23.923  16.301  1.00  0.00     0.056 A 
ATOM     13  C   UNL     1      18.716  24.402  16.515  1.00  0.00     0.099 A 
ATOM     14  C   UNL     1      17.412  19.607  13.026  1.00  0.00     0.106 C 
ATOM     15  C   UNL     1      22.201  22.283  14.389  1.00  0.00     0.009 A 
ATOM     16  C   UNL     1      22.319  23.750  16.346  1.00  0.00     0.027 A 
ATOM     17  C   UNL     1      22.935  22.928  15.385  1.00  0.00     0.003 A 
ENDROOT
BRANCH   6  18
ATOM     18  C   UNL     1      19.395  19.904  10.305  1.00  0.00     0.230 C 
ATOM     19  O   UNL     1      18.457  19.397   9.683  1.00  0.00    -0.274 OA
ATOM     20  N   UNL     1      20.698  19.390  10.193  1.00  0.00    -0.343 N 
BRANCH  20  21
ATOM     21  C   UNL     1      21.303  18.822  11.406  1.00  0.00     0.116 C 
ATOM     22  C   UNL     1      20.494  17.688  12.027  1.00  0.00     0.027 C 
ENDBRANCH  20  21
BRANCH  20  23
ATOM     23  C   UNL     1      20.970  18.691   8.933  1.00  0.00     0.116 C 
ATOM     24  C   UNL     1      21.449  19.603   7.814  1.00  0.00     0.027 C 
ENDBRANCH  20  23
ENDBRANCH   6  18
BRANCH   2  25
ATOM     25  C   UNL     1      20.154  25.491  18.187  1.00  0.00     0.230 C 
ATOM     26  O   UNL     1      20.402  24.979  19.276  1.00  0.00    -0.274 OA
BRANCH  25  27
ATOM     27  C   UNL     1      20.017  26.971  17.962  1.00  0.00     0.097 C 
ATOM     28  C   UNL     1      21.134  27.515  17.083  1.00  0.00     0.014 C 
ENDBRANCH  25  27
ENDBRANCH   2  25
TORSDOF 5
ENDMDL
MODEL 15
REMARK VINA RESULT:    -7.645      3.898      6.916
REMARK INTER + INTRA:         -10.451
REMARK INTER:                  -9.557
REMARK INTRA:                  -0.894
REMARK UNBOUND:                -0.572
REMARK SMILES CCC(=O)n1cc2c3c(cccc31)C1=C[C@@H](C(=O)N(CC)CC)CN(C)[C@@H]1C2
REMARK SMILES IDX 25 1 5 2 27 3 14 4 28 5 16 6 24 7 7 8 9 9 8 10 15 11 13 12
REMARK SMILES IDX 6 13 26 14 10 15 12 16 11 17 17 18 18 19 19 20 20 21 21 22
REMARK SMILES IDX 22 23 23 24 3 25 4 26 2 27 1 28
REMARK H PARENT
ROOT
ATOM      1  N   UNL     1      22.407  22.157  15.452  1.00  0.00    -0.298 NA
ATOM      2  N   UNL     1      20.707  19.170  10.496  1.00  0.00    -0.287 N 
ATOM      3  C   UNL     1      21.585  21.538  14.388  1.00  0.00     0.091 C 
ATOM      4  C   UNL     1      20.509  22.455  13.756  1.00  0.00    -0.026 C 
ATOM      5  C   UNL     1      22.507  20.890  13.294  1.00  0.00     0.061 C 
ATOM      6  C   UNL     1      21.359  24.453  14.978  1.00  0.00     0.116 C 
ATOM      7  C   UNL     1      22.627  23.599  15.227  1.00  0.00     0.102 C 
ATOM      8  C   UNL     1      21.654  20.312  12.208  1.00  0.00    -0.019 A 
ATOM      9  C   UNL     1      19.681  21.825  12.703  1.00  0.00    -0.011 A 
ATOM     10  C   UNL     1      20.347  20.799  12.002  1.00  0.00     0.011 A 
ATOM     11  C   UNL     1      20.399  23.763  14.049  1.00  0.00    -0.007 C 
ATOM     12  C   UNL     1      19.751  20.098  10.953  1.00  0.00     0.056 A 
ATOM     13  C   UNL     1      21.855  19.323  11.285  1.00  0.00     0.099 A 
ATOM     14  C   UNL     1      21.856  21.902  16.782  1.00  0.00     0.106 C 
ATOM     15  C   UNL     1      18.377  22.144  12.334  1.00  0.00     0.009 A 
ATOM     16  C   UNL     1      18.430  20.427  10.589  1.00  0.00     0.027 A 
ATOM     17  C   UNL     1      17.764  21.448  11.292  1.00  0.00     0.003 A 
ENDROOT
BRANCH   6  18
ATOM     18  C   UNL     1      20.816  25.080  16.289  1.00  0.00     0.230 C 
ATOM     19  O   UNL     1      21.536  25.798  16.989  1.00  0.00    -0.274 OA
ATOM     20  N   UNL     1      19.435  24.989  16.529  1.00  0.00    -0.343 N 
BRANCH  20  21
ATOM     21  C   UNL     1      18.909  23.679  16.939  1.00  0.00     0.116 C 
ATOM     22  C   UNL     1      17.627  23.276  16.219  1.00  0.00     0.027 C 
ENDBRANCH  20  21
BRANCH  20  23
ATOM     23  C   UNL     1      18.852  26.165  17.183  1.00  0.00     0.116 C 
ATOM     24  C   UNL     1      18.440  25.926  18.627  1.00  0.00     0.027 C 
ENDBRANCH  20  23
ENDBRANCH   6  18
BRANCH   2  25
ATOM     25  C   UNL     1      20.646  18.212   9.454  1.00  0.00     0.230 C 
ATOM     26  O   UNL     1      19.823  17.304   9.537  1.00  0.00    -0.274 OA
BRANCH  25  27
ATOM     27  C   UNL     1      21.606  18.377   8.310  1.00  0.00     0.097 C 
ATOM     28  C   UNL     1      21.420  19.713   7.605  1.00  0.00     0.014 C 
ENDBRANCH  25  27
ENDBRANCH   2  25
TORSDOF 5
ENDMDL
MODEL 16
REMARK VINA RESULT:    -7.543      2.766      4.981
REMARK INTER + INTRA:         -10.320
REMARK INTER:                  -9.733
REMARK INTRA:                  -0.587
REMARK UNBOUND:                -0.572
REMARK SMILES CCC(=O)n1cc2c3c(cccc31)C1=C[C@@H](C(=O)N(CC)CC)CN(C)[C@@H]1C2
REMARK SMILES IDX 25 1 5 2 27 3 14 4 28 5 16 6 24 7 7 8 9 9 8 10 15 11 13 12
REMARK SMILES IDX 6 13 26 14 10 15 12 16 11 17 17 18 18 19 19 20 20 21 21 22
REMARK SMILES IDX 22 23 23 24 3 25 4 26 2 27 1 28
REMARK H PARENT
ROOT
ATOM      1  N   UNL     1      18.920  22.468  11.422  1.00  0.00    -0.298 NA
ATOM      2  N   UNL     1      21.488  17.763   8.659  1.00  0.00    -0.287 N 
ATOM      3  C   UNL     1      19.758  21.281  11.138  1.00  0.00     0.091 C 
ATOM      4  C   UNL     1      19.704  20.156  12.200  1.00  0.00    -0.026 C 
ATOM      5  C   UNL     1      19.457  20.732   9.698  1.00  0.00     0.061 C 
ATOM      6  C   UNL     1      17.859  21.285  13.438  1.00  0.00     0.116 C 
ATOM      7  C   UNL     1      17.683  22.124  12.148  1.00  0.00     0.102 C 
ATOM      8  C   UNL     1      20.282  19.508   9.454  1.00  0.00    -0.019 A 
ATOM      9  C   UNL     1      20.555  18.979  11.918  1.00  0.00    -0.011 A 
ATOM     10  C   UNL     1      20.759  18.749  10.542  1.00  0.00     0.011 A 
ATOM     11  C   UNL     1      18.861  20.179  13.249  1.00  0.00    -0.007 C 
ATOM     12  C   UNL     1      21.510  17.675  10.063  1.00  0.00     0.056 A 
ATOM     13  C   UNL     1      20.734  18.894   8.318  1.00  0.00     0.099 A 
ATOM     14  C   UNL     1      19.673  23.512  12.113  1.00  0.00     0.106 C 
ATOM     15  C   UNL     1      21.130  18.098  12.831  1.00  0.00     0.009 A 
ATOM     16  C   UNL     1      22.090  16.791  10.996  1.00  0.00     0.027 A 
ATOM     17  C   UNL     1      21.889  17.023  12.370  1.00  0.00     0.003 A 
ENDROOT
BRANCH   6  18
ATOM     18  C   UNL     1      17.958  22.179  14.703  1.00  0.00     0.230 C 
ATOM     19  O   UNL     1      18.988  22.193  15.384  1.00  0.00    -0.274 OA
ATOM     20  N   UNL     1      16.940  23.124  14.912  1.00  0.00    -0.343 N 
BRANCH  20  21
ATOM     21  C   UNL     1      15.639  22.619  15.372  1.00  0.00     0.116 C 
ATOM     22  C   UNL     1      14.567  22.596  14.287  1.00  0.00     0.027 C 
ENDBRANCH  20  21
BRANCH  20  23
ATOM     23  C   UNL     1      17.397  24.391  15.492  1.00  0.00     0.116 C 
ATOM     24  C   UNL     1      17.364  24.420  17.012  1.00  0.00     0.027 C 
ENDBRANCH  20  23
ENDBRANCH   6  18
BRANCH   2  25
ATOM     25  C   UNL     1      22.073  16.937   7.667  1.00  0.00     0.230 C 
ATOM     26  O   UNL     1      22.221  15.741   7.909  1.00  0.00    -0.274 OA
BRANCH  25  27
ATOM     27  C   UNL     1      22.478  17.592   6.376  1.00  0.00     0.097 C 
ATOM     28  C   UNL     1      23.329  16.668   5.517  1.00  0.00     0.014 C 
ENDBRANCH  25  27
ENDBRANCH   2  25
TORSDOF 5
ENDMDL
MODEL 17
REMARK VINA RESULT:    -7.442      2.500      8.701
REMARK INTER + INTRA:         -10.190
REMARK INTER:                  -9.885
REMARK INTRA:                  -0.304
REMARK UNBOUND:                -0.572
REMARK SMILES CCC(=O)n1cc2c3c(cccc31)C1=C[C@@H](C(=O)N(CC)CC)CN(C)[C@@H]1C2
REMARK SMILES IDX 25 1 5 2 27 3 14 4 28 5 16 6 24 7 7 8 9 9 8 10 15 11 13 12
REMARK SMILES IDX 6 13 26 14 10 15 12 16 11 17 17 18 18 19 19 20 20 21 21 22
REMARK SMILES IDX 22 23 23 24 3 25 4 26 2 27 1 28
REMARK H PARENT
ROOT
ATOM      1  N   UNL     1      19.986  17.229   9.650  1.00  0.00    -0.298 NA
ATOM      2  N   UNL     1      19.587  22.151  13.111  1.00  0.00    -0.287 N 
ATOM      3  C   UNL     1      20.074  18.160  10.798  1.00  0.00     0.091 C 
ATOM      4  C   UNL     1      21.454  18.233  11.496  1.00  0.00    -0.026 C 
ATOM      5  C   UNL     1      19.559  19.585  10.384  1.00  0.00     0.061 C 
ATOM      6  C   UNL     1      22.518  16.813   9.746  1.00  0.00     0.116 C 
ATOM      7  C   UNL     1      21.257  17.131   8.905  1.00  0.00     0.102 C 
ATOM      8  C   UNL     1      19.700  20.517  11.547  1.00  0.00    -0.019 A 
ATOM      9  C   UNL     1      21.530  19.154  12.651  1.00  0.00    -0.011 A 
ATOM     10  C   UNL     1      20.638  20.242  12.563  1.00  0.00     0.011 A 
ATOM     11  C   UNL     1      22.545  17.600  11.027  1.00  0.00    -0.007 C 
ATOM     12  C   UNL     1      20.572  21.239  13.536  1.00  0.00     0.056 A 
ATOM     13  C   UNL     1      19.071  21.681  11.896  1.00  0.00     0.099 A 
ATOM     14  C   UNL     1      19.502  15.911  10.056  1.00  0.00     0.106 C 
ATOM     15  C   UNL     1      22.374  19.074  13.756  1.00  0.00     0.009 A 
ATOM     16  C   UNL     1      21.428  21.147  14.653  1.00  0.00     0.027 A 
ATOM     17  C   UNL     1      22.315  20.059  14.742  1.00  0.00     0.003 A 
ENDROOT
BRANCH   6  18
ATOM     18  C   UNL     1      22.814  15.291   9.794  1.00  0.00     0.230 C 
ATOM     19  O   UNL     1      22.058  14.521  10.395  1.00  0.00    -0.274 OA
ATOM     20  N   UNL     1      23.828  14.799   8.955  1.00  0.00    -0.343 N 
BRANCH  20  21
ATOM     21  C   UNL     1      25.217  15.080   9.343  1.00  0.00     0.116 C 
ATOM     22  C   UNL     1      26.011  13.839   9.738  1.00  0.00     0.027 C 
ENDBRANCH  20  21
BRANCH  20  23
ATOM     23  C   UNL     1      23.558  13.473   8.389  1.00  0.00     0.116 C 
ATOM     24  C   UNL     1      24.166  13.257   7.012  1.00  0.00     0.027 C 
ENDBRANCH  20  23
ENDBRANCH   6  18
BRANCH   2  25
ATOM     25  C   UNL     1      19.112  23.348  13.703  1.00  0.00     0.230 C 
ATOM     26  O   UNL     1      19.906  24.266  13.894  1.00  0.00    -0.274 OA
BRANCH  25  27
ATOM     27  C   UNL     1      17.654  23.408  14.061  1.00  0.00     0.097 C 
ATOM     28  C   UNL     1      17.255  22.277  14.999  1.00  0.00     0.014 C 
ENDBRANCH  25  27
ENDBRANCH   2  25
TORSDOF 5
ENDMDL
MODEL 18
REMARK VINA RESULT:    -7.436      4.051      9.397
REMARK INTER + INTRA:         -10.182
REMARK INTER:                  -9.726
REMARK INTRA:                  -0.455
REMARK UNBOUND:                -0.572
REMARK SMILES CCC(=O)n1cc2c3c(cccc31)C1=C[C@@H](C(=O)N(CC)CC)CN(C)[C@@H]1C2
REMARK SMILES IDX 25 1 5 2 27 3 14 4 28 5 16 6 24 7 7 8 9 9 8 10 15 11 13 12
REMARK SMILES IDX 6 13 26 14 10 15 12 16 11 17 17 18 18 19 19 20 20 21 21 22
REMARK SMILES IDX 22 23 23 24 3 25 4 26 2 27 1 28
REMARK H PARENT
ROOT
ATOM      1  N   UNL     1      19.182  20.284  11.930  1.00  0.00    -0.298 NA
ATOM      2  N   UNL     1      20.763  23.954  16.447  1.00  0.00    -0.287 N 
ATOM      3  C   UNL     1      19.772  20.812  13.181  1.00  0.00     0.091 C 
ATOM      4  C   UNL     1      21.277  20.515  13.387  1.00  0.00    -0.026 C 
ATOM      5  C   UNL     1      19.459  22.344  13.327  1.00  0.00     0.061 C 
ATOM      6  C   UNL     1      21.502  19.574  11.091  1.00  0.00     0.116 C 
ATOM      7  C   UNL     1      20.147  20.271  10.813  1.00  0.00     0.102 C 
ATOM      8  C   UNL     1      20.104  22.863  14.574  1.00  0.00    -0.019 A 
ATOM      9  C   UNL     1      21.857  21.033  14.647  1.00  0.00    -0.011 A 
ATOM     10  C   UNL     1      21.213  22.191  15.128  1.00  0.00     0.011 A 
ATOM     11  C   UNL     1      22.044  19.932  12.447  1.00  0.00    -0.007 C 
ATOM     12  C   UNL     1      21.623  22.851  16.287  1.00  0.00     0.056 A 
ATOM     13  C   UNL     1      19.845  23.931  15.388  1.00  0.00     0.099 A 
ATOM     14  C   UNL     1      18.575  18.969  12.128  1.00  0.00     0.106 C 
ATOM     15  C   UNL     1      22.942  20.530  15.361  1.00  0.00     0.009 A 
ATOM     16  C   UNL     1      22.720  22.332  17.004  1.00  0.00     0.027 A 
ATOM     17  C   UNL     1      23.360  21.174  16.525  1.00  0.00     0.003 A 
ENDROOT
BRANCH   6  18
ATOM     18  C   UNL     1      21.488  18.084  10.658  1.00  0.00     0.230 C 
ATOM     19  O   UNL     1      21.747  17.191  11.469  1.00  0.00    -0.274 OA
ATOM     20  N   UNL     1      20.957  17.780   9.393  1.00  0.00    -0.343 N 
BRANCH  20  21
ATOM     21  C   UNL     1      21.780  18.111   8.222  1.00  0.00     0.116 C 
ATOM     22  C   UNL     1      21.392  19.422   7.546  1.00  0.00     0.027 C 
ENDBRANCH  20  21
BRANCH  20  23
ATOM     23  C   UNL     1      20.207  16.521   9.336  1.00  0.00     0.116 C 
ATOM     24  C   UNL     1      18.813  16.607   9.937  1.00  0.00     0.027 C 
ENDBRANCH  20  23
ENDBRANCH   6  18
BRANCH   2  25
ATOM     25  C   UNL     1      20.723  24.964  17.440  1.00  0.00     0.230 C 
ATOM     26  O   UNL     1      21.106  24.689  18.574  1.00  0.00    -0.274 OA
BRANCH  25  27
ATOM     27  C   UNL     1      20.207  26.314  17.029  1.00  0.00     0.097 C 
ATOM     28  C   UNL     1      21.304  27.369  17.051  1.00  0.00     0.014 C 
ENDBRANCH  25  27
ENDBRANCH   2  25
TORSDOF 5
ENDMDL
MODEL 19
REMARK VINA RESULT:    -7.414      3.340      9.036
REMARK INTER + INTRA:         -10.154
REMARK INTER:                  -9.485
REMARK INTRA:                  -0.669
REMARK UNBOUND:                -0.572
REMARK SMILES CCC(=O)n1cc2c3c(cccc31)C1=C[C@@H](C(=O)N(CC)CC)CN(C)[C@@H]1C2
REMARK SMILES IDX 25 1 5 2 27 3 14 4 28 5 16 6 24 7 7 8 9 9 8 10 15 11 13 12
REMARK SMILES IDX 6 13 26 14 10 15 12 16 11 17 17 18 18 19 19 20 20 21 21 22
REMARK SMILES IDX 22 23 23 24 3 25 4 26 2 27 1 28
REMARK H PARENT
ROOT
ATOM      1  N   UNL     1      18.727  19.957  10.665  1.00  0.00    -0.298 NA
ATOM      2  N   UNL     1      19.568  23.580  15.412  1.00  0.00    -0.287 N 
ATOM      3  C   UNL     1      19.172  20.495  11.971  1.00  0.00     0.091 C 
ATOM      4  C   UNL     1      20.687  20.375  12.262  1.00  0.00    -0.026 C 
ATOM      5  C   UNL     1      18.662  21.969  12.155  1.00  0.00     0.061 C 
ATOM      6  C   UNL     1      21.163  19.576   9.950  1.00  0.00     0.116 C 
ATOM      7  C   UNL     1      19.750  20.113   9.613  1.00  0.00     0.102 C 
ATOM      8  C   UNL     1      19.162  22.504  13.461  1.00  0.00    -0.019 A 
ATOM      9  C   UNL     1      21.123  20.901  13.575  1.00  0.00    -0.011 A 
ATOM     10  C   UNL     1      20.312  21.948  14.058  1.00  0.00     0.011 A 
ATOM     11  C   UNL     1      21.575  19.934  11.351  1.00  0.00    -0.007 C 
ATOM     12  C   UNL     1      20.568  22.600  15.265  1.00  0.00     0.056 A 
ATOM     13  C   UNL     1      18.724  23.494  14.297  1.00  0.00     0.099 A 
ATOM     14  C   UNL     1      18.279  18.570  10.774  1.00  0.00     0.106 C 
ATOM     15  C   UNL     1      22.218  20.502  14.337  1.00  0.00     0.009 A 
ATOM     16  C   UNL     1      21.677  22.186  16.030  1.00  0.00     0.027 A 
ATOM     17  C   UNL     1      22.484  21.138  15.550  1.00  0.00     0.003 A 
ENDROOT
BRANCH   6  18
ATOM     18  C   UNL     1      21.360  18.117   9.460  1.00  0.00     0.230 C 
ATOM     19  O   UNL     1      21.223  17.829   8.267  1.00  0.00    -0.274 OA
ATOM     20  N   UNL     1      21.912  17.196  10.366  1.00  0.00    -0.343 N 
BRANCH  20  21
ATOM     21  C   UNL     1      21.042  16.713  11.448  1.00  0.00     0.116 C 
ATOM     22  C   UNL     1      21.585  16.989  12.846  1.00  0.00     0.027 C 
ENDBRANCH  20  21
BRANCH  20  23
ATOM     23  C   UNL     1      22.814  16.211   9.759  1.00  0.00     0.116 C 
ATOM     24  C   UNL     1      22.449  14.768  10.069  1.00  0.00     0.027 C 
ENDBRANCH  20  23
ENDBRANCH   6  18
BRANCH   2  25
ATOM     25  C   UNL     1      19.345  24.531  16.439  1.00  0.00     0.230 C 
ATOM     26  O   UNL     1      19.459  25.725  16.171  1.00  0.00    -0.274 OA
BRANCH  25  27
ATOM     27  C   UNL     1      18.980  24.003  17.798  1.00  0.00     0.097 C 
ATOM     28  C   UNL     1      17.585  23.395  17.813  1.00  0.00     0.014 C 
ENDBRANCH  25  27
ENDBRANCH   2  25
TORSDOF 5
ENDMDL
