MODEL 1
REMARK VINA RESULT:    -9.411      0.000      0.000
REMARK INTER + INTRA:         -12.442
REMARK INTER:                 -12.162
REMARK INTRA:                  -0.280
REMARK UNBOUND:                -0.280
REMARK SMILES CCC(=O)n1cc2c3c(cccc31)C1=C[C@@H](C(=O)N(CC)CC)CN(C)[C@@H]1C2
REMARK SMILES IDX 25 1 5 2 27 3 14 4 28 5 16 6 24 7 7 8 9 9 8 10 15 11 13 12
REMARK SMILES IDX 6 13 26 14 10 15 12 16 11 17 17 18 18 19 19 20 20 21 21 22
REMARK SMILES IDX 22 23 23 24 3 25 4 26 2 27 1 28
REMARK H PARENT
ROOT
ATOM      1  N   UNL     1     107.415 132.079 126.607  1.00  0.00    -0.298 NA
ATOM      2  N   UNL     1     107.040 137.977 127.806  1.00  0.00    -0.287 N 
ATOM      3  C   UNL     1     107.736 133.519 126.730  1.00  0.00     0.091 C 
ATOM      4  C   UNL     1     108.296 134.191 125.453  1.00  0.00    -0.026 C 
ATOM      5  C   UNL     1     106.504 134.305 127.305  1.00  0.00     0.061 C 
ATOM      6  C   UNL     1     107.857 132.159 124.079  1.00  0.00     0.116 C 
ATOM      7  C   UNL     1     106.948 131.720 125.254  1.00  0.00     0.102 C 
ATOM      8  C   UNL     1     106.839 135.762 127.377  1.00  0.00    -0.019 A 
ATOM      9  C   UNL     1     108.629 135.627 125.588  1.00  0.00    -0.011 A 
ATOM     10  C   UNL     1     107.845 136.298 126.548  1.00  0.00     0.011 A 
ATOM     11  C   UNL     1     108.370 133.560 124.267  1.00  0.00    -0.007 C 
ATOM     12  C   UNL     1     107.982 137.662 126.809  1.00  0.00     0.056 A 
ATOM     13  C   UNL     1     106.361 136.797 128.135  1.00  0.00     0.099 A 
ATOM     14  C   UNL     1     108.531 131.235 127.029  1.00  0.00     0.106 C 
ATOM     15  C   UNL     1     109.579 136.356 124.878  1.00  0.00     0.009 A 
ATOM     16  C   UNL     1     108.949 138.390 126.086  1.00  0.00     0.027 A 
ATOM     17  C   UNL     1     109.734 137.719 125.131  1.00  0.00     0.003 A 
ENDROOT
BRANCH   6  18
ATOM     18  C   UNL     1     108.855 131.043 123.670  1.00  0.00     0.230 C 
ATOM     19  O   UNL     1     108.998 130.038 124.373  1.00  0.00    -0.274 OA
ATOM     20  N   UNL     1     109.411 131.108 122.381  1.00  0.00    -0.343 N 
BRANCH  20  21
ATOM     21  C   UNL     1     110.450 132.121 122.148  1.00  0.00     0.116 C 
ATOM     22  C   UNL     1     111.488 131.712 121.108  1.00  0.00     0.027 C 
ENDBRANCH  20  21
BRANCH  20  23
ATOM     23  C   UNL     1     109.605 129.805 121.736  1.00  0.00     0.116 C 
ATOM     24  C   UNL     1     108.594 129.504 120.641  1.00  0.00     0.027 C 
ENDBRANCH  20  23
ENDBRANCH   6  18
BRANCH   2  25
ATOM     25  C   UNL     1     106.738 139.207 128.442  1.00  0.00     0.230 C 
ATOM     26  O   UNL     1     107.088 139.369 129.608  1.00  0.00    -0.274 OA
BRANCH  25  27
ATOM     27  C   UNL     1     105.999 140.237 127.633  1.00  0.00     0.097 C 
ATOM     28  C   UNL     1     106.935 141.309 127.094  1.00  0.00     0.014 C 
ENDBRANCH  25  27
ENDBRANCH   2  25
TORSDOF 5
ENDMDL
MODEL 2
REMARK VINA RESULT:    -9.372      4.724      7.780
REMARK INTER + INTRA:         -12.391
REMARK INTER:                 -12.271
REMARK INTRA:                  -0.120
REMARK UNBOUND:                -0.280
REMARK SMILES CCC(=O)n1cc2c3c(cccc31)C1=C[C@@H](C(=O)N(CC)CC)CN(C)[C@@H]1C2
REMARK SMILES IDX 25 1 5 2 27 3 14 4 28 5 16 6 24 7 7 8 9 9 8 10 15 11 13 12
REMARK SMILES IDX 6 13 26 14 10 15 12 16 11 17 17 18 18 19 19 20 20 21 21 22
REMARK SMILES IDX 22 23 23 24 3 25 4 26 2 27 1 28
REMARK H PARENT
ROOT
ATOM      1  N   UNL     1     105.647 135.794 126.556  1.00  0.00    -0.298 NA
ATOM      2  N   UNL     1     110.236 139.547 125.448  1.00  0.00    -0.287 N 
ATOM      3  C   UNL     1     106.442 137.016 126.300  1.00  0.00     0.091 C 
ATOM      4  C   UNL     1     106.210 138.184 127.289  1.00  0.00    -0.026 C 
ATOM      5  C   UNL     1     107.966 136.658 126.176  1.00  0.00     0.061 C 
ATOM      6  C   UNL     1     104.787 136.772 128.769  1.00  0.00     0.116 C 
ATOM      7  C   UNL     1     105.394 135.577 127.994  1.00  0.00     0.102 C 
ATOM      8  C   UNL     1     108.753 137.914 125.963  1.00  0.00    -0.019 A 
ATOM      9  C   UNL     1     106.997 139.408 127.018  1.00  0.00    -0.011 A 
ATOM     10  C   UNL     1     108.228 139.154 126.380  1.00  0.00     0.011 A 
ATOM     11  C   UNL     1     105.440 138.072 128.387  1.00  0.00    -0.007 C 
ATOM     12  C   UNL     1     109.131 140.169 126.060  1.00  0.00     0.056 A 
ATOM     13  C   UNL     1     109.972 138.171 125.400  1.00  0.00     0.099 A 
ATOM     14  C   UNL     1     104.403 135.785 125.788  1.00  0.00     0.106 C 
ATOM     15  C   UNL     1     106.673 140.724 127.338  1.00  0.00     0.009 A 
ATOM     16  C   UNL     1     108.792 141.498 126.386  1.00  0.00     0.027 A 
ATOM     17  C   UNL     1     107.561 141.751 127.020  1.00  0.00     0.003 A 
ENDROOT
BRANCH   6  18
ATOM     18  C   UNL     1     103.238 136.699 128.826  1.00  0.00     0.230 C 
ATOM     19  O   UNL     1     102.621 135.871 128.149  1.00  0.00    -0.274 OA
ATOM     20  N   UNL     1     102.589 137.440 129.827  1.00  0.00    -0.343 N 
BRANCH  20  21
ATOM     21  C   UNL     1     102.512 138.896 129.643  1.00  0.00     0.116 C 
ATOM     22  C   UNL     1     103.100 139.697 130.800  1.00  0.00     0.027 C 
ENDBRANCH  20  21
BRANCH  20  23
ATOM     23  C   UNL     1     101.407 136.786 130.399  1.00  0.00     0.116 C 
ATOM     24  C   UNL     1     100.089 137.416 129.974  1.00  0.00     0.027 C 
ENDBRANCH  20  23
ENDBRANCH   6  18
BRANCH   2  25
ATOM     25  C   UNL     1     111.440 140.089 124.934  1.00  0.00     0.230 C 
ATOM     26  O   UNL     1     111.781 141.212 125.296  1.00  0.00    -0.274 OA
BRANCH  25  27
ATOM     27  C   UNL     1     112.220 139.240 123.970  1.00  0.00     0.097 C 
ATOM     28  C   UNL     1     112.886 140.080 122.889  1.00  0.00     0.014 C 
ENDBRANCH  25  27
ENDBRANCH   2  25
TORSDOF 5
ENDMDL
MODEL 3
REMARK VINA RESULT:    -9.291      2.145      8.670
REMARK INTER + INTRA:         -12.286
REMARK INTER:                 -12.012
REMARK INTRA:                  -0.274
REMARK UNBOUND:                -0.280
REMARK SMILES CCC(=O)n1cc2c3c(cccc31)C1=C[C@@H](C(=O)N(CC)CC)CN(C)[C@@H]1C2
REMARK SMILES IDX 25 1 5 2 27 3 14 4 28 5 16 6 24 7 7 8 9 9 8 10 15 11 13 12
REMARK SMILES IDX 6 13 26 14 10 15 12 16 11 17 17 18 18 19 19 20 20 21 21 22
REMARK SMILES IDX 22 23 23 24 3 25 4 26 2 27 1 28
REMARK H PARENT
ROOT
ATOM      1  N   UNL     1     106.456 136.794 125.553  1.00  0.00    -0.298 NA
ATOM      2  N   UNL     1     108.587 131.360 124.035  1.00  0.00    -0.287 N 
ATOM      3  C   UNL     1     107.098 135.461 125.612  1.00  0.00     0.091 C 
ATOM      4  C   UNL     1     106.634 134.547 126.772  1.00  0.00    -0.026 C 
ATOM      5  C   UNL     1     106.981 134.739 124.222  1.00  0.00     0.061 C 
ATOM      6  C   UNL     1     104.830 136.135 127.427  1.00  0.00     0.116 C 
ATOM      7  C   UNL     1     105.061 136.770 126.033  1.00  0.00     0.102 C 
ATOM      8  C   UNL     1     107.596 133.377 124.321  1.00  0.00    -0.019 A 
ATOM      9  C   UNL     1     107.291 133.222 126.833  1.00  0.00    -0.011 A 
ATOM     10  C   UNL     1     107.708 132.742 125.575  1.00  0.00     0.011 A 
ATOM     11  C   UNL     1     105.626 134.872 127.601  1.00  0.00    -0.007 C 
ATOM     12  C   UNL     1     108.324 131.501 125.411  1.00  0.00     0.056 A 
ATOM     13  C   UNL     1     108.134 132.524 123.398  1.00  0.00     0.099 A 
ATOM     14  C   UNL     1     107.244 137.808 126.252  1.00  0.00     0.106 C 
ATOM     15  C   UNL     1     107.507 132.424 127.954  1.00  0.00     0.009 A 
ATOM     16  C   UNL     1     108.540 130.702 126.553  1.00  0.00     0.027 A 
ATOM     17  C   UNL     1     108.127 131.183 127.809  1.00  0.00     0.003 A 
ENDROOT
BRANCH   6  18
ATOM     18  C   UNL     1     104.849 137.197 128.558  1.00  0.00     0.230 C 
ATOM     19  O   UNL     1     105.901 137.762 128.872  1.00  0.00    -0.274 OA
ATOM     20  N   UNL     1     103.613 137.650 129.047  1.00  0.00    -0.343 N 
BRANCH  20  21
ATOM     21  C   UNL     1     102.860 136.737 129.918  1.00  0.00     0.116 C 
ATOM     22  C   UNL     1     101.485 136.360 129.378  1.00  0.00     0.027 C 
ENDBRANCH  20  21
BRANCH  20  23
ATOM     23  C   UNL     1     103.582 139.072 129.401  1.00  0.00     0.116 C 
ATOM     24  C   UNL     1     103.381 139.333 130.886  1.00  0.00     0.027 C 
ENDBRANCH  20  23
ENDBRANCH   6  18
BRANCH   2  25
ATOM     25  C   UNL     1     109.187 130.303 123.308  1.00  0.00     0.230 C 
ATOM     26  O   UNL     1     109.453 129.259 123.898  1.00  0.00    -0.274 OA
BRANCH  25  27
ATOM     27  C   UNL     1     109.460 130.539 121.849  1.00  0.00     0.097 C 
ATOM     28  C   UNL     1     109.170 129.301 121.013  1.00  0.00     0.014 C 
ENDBRANCH  25  27
ENDBRANCH   2  25
TORSDOF 5
ENDMDL
MODEL 4
REMARK VINA RESULT:    -9.154      1.619      8.541
REMARK INTER + INTRA:         -12.109
REMARK INTER:                 -11.456
REMARK INTRA:                  -0.653
REMARK UNBOUND:                -0.280
REMARK SMILES CCC(=O)n1cc2c3c(cccc31)C1=C[C@@H](C(=O)N(CC)CC)CN(C)[C@@H]1C2
REMARK SMILES IDX 25 1 5 2 27 3 14 4 28 5 16 6 24 7 7 8 9 9 8 10 15 11 13 12
REMARK SMILES IDX 6 13 26 14 10 15 12 16 11 17 17 18 18 19 19 20 20 21 21 22
REMARK SMILES IDX 22 23 23 24 3 25 4 26 2 27 1 28
REMARK H PARENT
ROOT
ATOM      1  N   UNL     1     107.153 136.886 125.511  1.00  0.00    -0.298 NA
ATOM      2  N   UNL     1     108.471 131.217 123.932  1.00  0.00    -0.287 N 
ATOM      3  C   UNL     1     107.623 135.482 125.546  1.00  0.00     0.091 C 
ATOM      4  C   UNL     1     107.124 134.640 126.746  1.00  0.00    -0.026 C 
ATOM      5  C   UNL     1     107.324 134.773 124.177  1.00  0.00     0.061 C 
ATOM      6  C   UNL     1     105.583 136.449 127.495  1.00  0.00     0.116 C 
ATOM      7  C   UNL     1     105.801 137.042 126.081  1.00  0.00     0.102 C 
ATOM      8  C   UNL     1     107.766 133.345 124.254  1.00  0.00    -0.019 A 
ATOM      9  C   UNL     1     107.610 133.242 126.782  1.00  0.00    -0.011 A 
ATOM     10  C   UNL     1     107.878 132.707 125.506  1.00  0.00     0.011 A 
ATOM     11  C   UNL     1     106.222 135.095 127.634  1.00  0.00    -0.007 C 
ATOM     12  C   UNL     1     108.319 131.397 125.320  1.00  0.00     0.056 A 
ATOM     13  C   UNL     1     108.129 132.425 123.309  1.00  0.00     0.099 A 
ATOM     14  C   UNL     1     108.108 137.794 126.144  1.00  0.00     0.106 C 
ATOM     15  C   UNL     1     107.796 132.429 127.897  1.00  0.00     0.009 A 
ATOM     16  C   UNL     1     108.508 130.583 126.455  1.00  0.00     0.027 A 
ATOM     17  C   UNL     1     108.242 131.119 127.729  1.00  0.00     0.003 A 
ENDROOT
BRANCH   6  18
ATOM     18  C   UNL     1     105.811 137.505 128.608  1.00  0.00     0.230 C 
ATOM     19  O   UNL     1     106.893 137.572 129.199  1.00  0.00    -0.274 OA
ATOM     20  N   UNL     1     104.843 138.511 128.759  1.00  0.00    -0.343 N 
BRANCH  20  21
ATOM     21  C   UNL     1     103.569 138.130 129.385  1.00  0.00     0.116 C 
ATOM     22  C   UNL     1     103.726 137.451 130.741  1.00  0.00     0.027 C 
ENDBRANCH  20  21
BRANCH  20  23
ATOM     23  C   UNL     1     105.382 139.827 129.116  1.00  0.00     0.116 C 
ATOM     24  C   UNL     1     106.037 140.560 127.955  1.00  0.00     0.027 C 
ENDBRANCH  20  23
ENDBRANCH   6  18
BRANCH   2  25
ATOM     25  C   UNL     1     108.883 130.088 123.181  1.00  0.00     0.230 C 
ATOM     26  O   UNL     1     109.532 129.211 123.746  1.00  0.00    -0.274 OA
BRANCH  25  27
ATOM     27  C   UNL     1     108.493 130.046 121.730  1.00  0.00     0.097 C 
ATOM     28  C   UNL     1     109.636 129.556 120.852  1.00  0.00     0.014 C 
ENDBRANCH  25  27
ENDBRANCH   2  25
TORSDOF 5
ENDMDL
MODEL 5
REMARK VINA RESULT:    -8.746      1.630      8.208
REMARK INTER + INTRA:         -11.582
REMARK INTER:                 -10.898
REMARK INTRA:                  -0.684
REMARK UNBOUND:                -0.280
REMARK SMILES CCC(=O)n1cc2c3c(cccc31)C1=C[C@@H](C(=O)N(CC)CC)CN(C)[C@@H]1C2
REMARK SMILES IDX 25 1 5 2 27 3 14 4 28 5 16 6 24 7 7 8 9 9 8 10 15 11 13 12
REMARK SMILES IDX 6 13 26 14 10 15 12 16 11 17 17 18 18 19 19 20 20 21 21 22
REMARK SMILES IDX 22 23 23 24 3 25 4 26 2 27 1 28
REMARK H PARENT
ROOT
ATOM      1  N   UNL     1     106.361 135.813 126.106  1.00  0.00    -0.298 NA
ATOM      2  N   UNL     1     108.896 131.274 123.050  1.00  0.00    -0.287 N 
ATOM      3  C   UNL     1     107.140 135.040 125.112  1.00  0.00     0.091 C 
ATOM      4  C   UNL     1     108.597 135.514 124.890  1.00  0.00    -0.026 C 
ATOM      5  C   UNL     1     107.074 133.506 125.443  1.00  0.00     0.061 C 
ATOM      6  C   UNL     1     108.458 137.131 126.781  1.00  0.00     0.116 C 
ATOM      7  C   UNL     1     107.201 136.330 127.203  1.00  0.00     0.102 C 
ATOM      8  C   UNL     1     107.906 132.752 124.452  1.00  0.00    -0.019 A 
ATOM      9  C   UNL     1     109.365 134.746 123.885  1.00  0.00    -0.011 A 
ATOM     10  C   UNL     1     108.950 133.404 123.765  1.00  0.00     0.011 A 
ATOM     11  C   UNL     1     109.174 136.477 125.632  1.00  0.00    -0.007 C 
ATOM     12  C   UNL     1     109.563 132.504 122.893  1.00  0.00     0.056 A 
ATOM     13  C   UNL     1     107.888 131.459 124.006  1.00  0.00     0.099 A 
ATOM     14  C   UNL     1     105.587 136.882 125.476  1.00  0.00     0.106 C 
ATOM     15  C   UNL     1     110.426 135.186 123.098  1.00  0.00     0.009 A 
ATOM     16  C   UNL     1     110.634 132.961 122.099  1.00  0.00     0.027 A 
ATOM     17  C   UNL     1     111.046 134.301 122.216  1.00  0.00     0.003 A 
ENDROOT
BRANCH   6  18
ATOM     18  C   UNL     1     108.181 138.656 126.721  1.00  0.00     0.230 C 
ATOM     19  O   UNL     1     108.702 139.357 125.848  1.00  0.00    -0.274 OA
ATOM     20  N   UNL     1     107.157 139.164 127.539  1.00  0.00    -0.343 N 
BRANCH  20  21
ATOM     21  C   UNL     1     107.437 139.272 128.977  1.00  0.00     0.116 C 
ATOM     22  C   UNL     1     106.220 139.028 129.863  1.00  0.00     0.027 C 
ENDBRANCH  20  21
BRANCH  20  23
ATOM     23  C   UNL     1     106.380 140.252 126.936  1.00  0.00     0.116 C 
ATOM     24  C   UNL     1     106.894 141.640 127.282  1.00  0.00     0.027 C 
ENDBRANCH  20  23
ENDBRANCH   6  18
BRANCH   2  25
ATOM     25  C   UNL     1     109.102 130.019 122.425  1.00  0.00     0.230 C 
ATOM     26  O   UNL     1     109.429 129.061 123.121  1.00  0.00    -0.274 OA
BRANCH  25  27
ATOM     27  C   UNL     1     108.907 129.951 120.936  1.00  0.00     0.097 C 
ATOM     28  C   UNL     1     107.433 130.006 120.558  1.00  0.00     0.014 C 
ENDBRANCH  25  27
ENDBRANCH   2  25
TORSDOF 5
ENDMDL
MODEL 6
REMARK VINA RESULT:    -8.723      1.274      1.495
REMARK INTER + INTRA:         -11.552
REMARK INTER:                 -11.521
REMARK INTRA:                  -0.031
REMARK UNBOUND:                -0.280
REMARK SMILES CCC(=O)n1cc2c3c(cccc31)C1=C[C@@H](C(=O)N(CC)CC)CN(C)[C@@H]1C2
REMARK SMILES IDX 25 1 5 2 27 3 14 4 28 5 16 6 24 7 7 8 9 9 8 10 15 11 13 12
REMARK SMILES IDX 6 13 26 14 10 15 12 16 11 17 17 18 18 19 19 20 20 21 21 22
REMARK SMILES IDX 22 23 23 24 3 25 4 26 2 27 1 28
REMARK H PARENT
ROOT
ATOM      1  N   UNL     1     107.670 130.985 125.569  1.00  0.00    -0.298 NA
ATOM      2  N   UNL     1     106.845 136.649 127.468  1.00  0.00    -0.287 N 
ATOM      3  C   UNL     1     107.886 132.415 125.884  1.00  0.00     0.091 C 
ATOM      4  C   UNL     1     108.446 133.277 124.726  1.00  0.00    -0.026 C 
ATOM      5  C   UNL     1     106.582 133.043 126.494  1.00  0.00     0.061 C 
ATOM      6  C   UNL     1     108.201 131.411 123.093  1.00  0.00     0.116 C 
ATOM      7  C   UNL     1     107.280 130.770 124.162  1.00  0.00     0.102 C 
ATOM      8  C   UNL     1     106.813 134.497 126.761  1.00  0.00    -0.019 A 
ATOM      9  C   UNL     1     108.674 134.703 125.053  1.00  0.00    -0.011 A 
ATOM     10  C   UNL     1     107.810 135.196 126.051  1.00  0.00     0.011 A 
ATOM     11  C   UNL     1     108.608 132.807 123.476  1.00  0.00    -0.007 C 
ATOM     12  C   UNL     1     107.843 136.522 126.484  1.00  0.00     0.056 A 
ATOM     13  C   UNL     1     106.237 135.395 127.617  1.00  0.00     0.099 A 
ATOM     14  C   UNL     1     108.825 130.167 125.935  1.00  0.00     0.106 C 
ATOM     15  C   UNL     1     109.598 135.575 124.482  1.00  0.00     0.009 A 
ATOM     16  C   UNL     1     108.784 137.396 125.902  1.00  0.00     0.027 A 
ATOM     17  C   UNL     1     109.649 136.902 124.908  1.00  0.00     0.003 A 
ENDROOT
BRANCH   6  18
ATOM     18  C   UNL     1     109.287 130.421 122.596  1.00  0.00     0.230 C 
ATOM     19  O   UNL     1     109.362 129.281 123.065  1.00  0.00    -0.274 OA
ATOM     20  N   UNL     1     110.023 130.783 121.455  1.00  0.00    -0.343 N 
BRANCH  20  21
ATOM     21  C   UNL     1     111.047 131.824 121.618  1.00  0.00     0.116 C 
ATOM     22  C   UNL     1     112.401 131.457 121.019  1.00  0.00     0.027 C 
ENDBRANCH  20  21
BRANCH  20  23
ATOM     23  C   UNL     1     110.356 129.665 120.567  1.00  0.00     0.116 C 
ATOM     24  C   UNL     1     110.098 129.949 119.095  1.00  0.00     0.027 C 
ENDBRANCH  20  23
ENDBRANCH   6  18
BRANCH   2  25
ATOM     25  C   UNL     1     106.435 137.767 128.236  1.00  0.00     0.230 C 
ATOM     26  O   UNL     1     105.243 138.062 128.257  1.00  0.00    -0.274 OA
BRANCH  25  27
ATOM     27  C   UNL     1     107.503 138.523 128.977  1.00  0.00     0.097 C 
ATOM     28  C   UNL     1     107.783 139.876 128.339  1.00  0.00     0.014 C 
ENDBRANCH  25  27
ENDBRANCH   2  25
TORSDOF 5
ENDMDL
MODEL 7
REMARK VINA RESULT:    -8.619      1.745      8.131
REMARK INTER + INTRA:         -11.418
REMARK INTER:                 -11.443
REMARK INTRA:                   0.025
REMARK UNBOUND:                -0.280
REMARK SMILES CCC(=O)n1cc2c3c(cccc31)C1=C[C@@H](C(=O)N(CC)CC)CN(C)[C@@H]1C2
REMARK SMILES IDX 25 1 5 2 27 3 14 4 28 5 16 6 24 7 7 8 9 9 8 10 15 11 13 12
REMARK SMILES IDX 6 13 26 14 10 15 12 16 11 17 17 18 18 19 19 20 20 21 21 22
REMARK SMILES IDX 22 23 23 24 3 25 4 26 2 27 1 28
REMARK H PARENT
ROOT
ATOM      1  N   UNL     1     106.399 135.013 125.667  1.00  0.00    -0.298 NA
ATOM      2  N   UNL     1     109.529 131.117 122.292  1.00  0.00    -0.287 N 
ATOM      3  C   UNL     1     107.308 134.437 124.649  1.00  0.00     0.091 C 
ATOM      4  C   UNL     1     108.726 135.056 124.592  1.00  0.00    -0.026 C 
ATOM      5  C   UNL     1     107.363 132.874 124.790  1.00  0.00     0.061 C 
ATOM      6  C   UNL     1     108.320 136.408 126.645  1.00  0.00     0.116 C 
ATOM      7  C   UNL     1     107.119 135.459 126.876  1.00  0.00     0.102 C 
ATOM      8  C   UNL     1     108.321 132.321 123.782  1.00  0.00    -0.019 A 
ATOM      9  C   UNL     1     109.623 134.485 123.563  1.00  0.00    -0.011 A 
ATOM     10  C   UNL     1     109.342 133.139 123.255  1.00  0.00     0.011 A 
ATOM     11  C   UNL     1     109.164 135.964 125.483  1.00  0.00    -0.007 C 
ATOM     12  C   UNL     1     110.088 132.408 122.330  1.00  0.00     0.056 A 
ATOM     13  C   UNL     1     108.450 131.097 123.185  1.00  0.00     0.099 A 
ATOM     14  C   UNL     1     105.572 136.083 125.113  1.00  0.00     0.106 C 
ATOM     15  C   UNL     1     110.686 135.108 122.913  1.00  0.00     0.009 A 
ATOM     16  C   UNL     1     111.161 133.049 121.676  1.00  0.00     0.027 A 
ATOM     17  C   UNL     1     111.439 134.394 121.981  1.00  0.00     0.003 A 
ENDROOT
BRANCH   6  18
ATOM     18  C   UNL     1     107.907 137.901 126.746  1.00  0.00     0.230 C 
ATOM     19  O   UNL     1     106.884 138.309 126.189  1.00  0.00    -0.274 OA
ATOM     20  N   UNL     1     108.601 138.707 127.663  1.00  0.00    -0.343 N 
BRANCH  20  21
ATOM     21  C   UNL     1     109.968 139.110 127.304  1.00  0.00     0.116 C 
ATOM     22  C   UNL     1     110.108 139.611 125.871  1.00  0.00     0.027 C 
ENDBRANCH  20  21
BRANCH  20  23
ATOM     23  C   UNL     1     107.774 139.713 128.336  1.00  0.00     0.116 C 
ATOM     24  C   UNL     1     106.857 139.141 129.406  1.00  0.00     0.027 C 
ENDBRANCH  20  23
ENDBRANCH   6  18
BRANCH   2  25
ATOM     25  C   UNL     1     109.889 129.971 121.539  1.00  0.00     0.230 C 
ATOM     26  O   UNL     1     109.261 128.931 121.715  1.00  0.00    -0.274 OA
BRANCH  25  27
ATOM     27  C   UNL     1     111.030 130.114 120.571  1.00  0.00     0.097 C 
ATOM     28  C   UNL     1     110.568 129.964 119.129  1.00  0.00     0.014 C 
ENDBRANCH  25  27
ENDBRANCH   2  25
TORSDOF 5
ENDMDL
MODEL 8
REMARK VINA RESULT:    -8.340      2.480      8.463
REMARK INTER + INTRA:         -11.057
REMARK INTER:                 -10.194
REMARK INTRA:                  -0.863
REMARK UNBOUND:                -0.280
REMARK SMILES CCC(=O)n1cc2c3c(cccc31)C1=C[C@@H](C(=O)N(CC)CC)CN(C)[C@@H]1C2
REMARK SMILES IDX 25 1 5 2 27 3 14 4 28 5 16 6 24 7 7 8 9 9 8 10 15 11 13 12
REMARK SMILES IDX 6 13 26 14 10 15 12 16 11 17 17 18 18 19 19 20 20 21 21 22
REMARK SMILES IDX 22 23 23 24 3 25 4 26 2 27 1 28
REMARK H PARENT
ROOT
ATOM      1  N   UNL     1     104.041 134.870 128.353  1.00  0.00    -0.298 NA
ATOM      2  N   UNL     1     108.069 131.525 125.362  1.00  0.00    -0.287 N 
ATOM      3  C   UNL     1     104.983 134.380 127.322  1.00  0.00     0.091 C 
ATOM      4  C   UNL     1     106.018 135.415 126.817  1.00  0.00    -0.026 C 
ATOM      5  C   UNL     1     105.675 133.055 127.802  1.00  0.00     0.061 C 
ATOM      6  C   UNL     1     105.338 137.078 128.543  1.00  0.00     0.116 C 
ATOM      7  C   UNL     1     104.652 135.878 129.242  1.00  0.00     0.102 C 
ATOM      8  C   UNL     1     106.655 132.606 126.763  1.00  0.00    -0.019 A 
ATOM      9  C   UNL     1     106.947 134.922 125.775  1.00  0.00    -0.011 A 
ATOM     10  C   UNL     1     107.197 133.537 125.854  1.00  0.00     0.011 A 
ATOM     11  C   UNL     1     106.153 136.639 127.358  1.00  0.00    -0.007 C 
ATOM     12  C   UNL     1     108.065 132.880 124.981  1.00  0.00     0.056 A 
ATOM     13  C   UNL     1     107.196 131.389 126.450  1.00  0.00     0.099 A 
ATOM     14  C   UNL     1     102.797 135.362 127.763  1.00  0.00     0.106 C 
ATOM     15  C   UNL     1     107.592 135.659 124.785  1.00  0.00     0.009 A 
ATOM     16  C   UNL     1     108.710 133.635 123.979  1.00  0.00     0.027 A 
ATOM     17  C   UNL     1     108.458 135.017 123.900  1.00  0.00     0.003 A 
ENDROOT
BRANCH   6  18
ATOM     18  C   UNL     1     104.376 138.285 128.387  1.00  0.00     0.230 C 
ATOM     19  O   UNL     1     103.990 138.641 127.269  1.00  0.00    -0.274 OA
ATOM     20  N   UNL     1     103.791 138.806 129.552  1.00  0.00    -0.343 N 
BRANCH  20  21
ATOM     21  C   UNL     1     104.650 139.607 130.436  1.00  0.00     0.116 C 
ATOM     22  C   UNL     1     104.175 141.044 130.622  1.00  0.00     0.027 C 
ENDBRANCH  20  21
BRANCH  20  23
ATOM     23  C   UNL     1     102.408 139.266 129.386  1.00  0.00     0.116 C 
ATOM     24  C   UNL     1     101.368 138.300 129.932  1.00  0.00     0.027 C 
ENDBRANCH  20  23
ENDBRANCH   6  18
BRANCH   2  25
ATOM     25  C   UNL     1     108.771 130.414 124.832  1.00  0.00     0.230 C 
ATOM     26  O   UNL     1     109.524 129.786 125.573  1.00  0.00    -0.274 OA
BRANCH  25  27
ATOM     27  C   UNL     1     108.543 130.082 123.384  1.00  0.00     0.097 C 
ATOM     28  C   UNL     1     109.642 130.648 122.495  1.00  0.00     0.014 C 
ENDBRANCH  25  27
ENDBRANCH   2  25
TORSDOF 5
ENDMDL
MODEL 9
REMARK VINA RESULT:    -8.121      1.842      8.448
REMARK INTER + INTRA:         -10.774
REMARK INTER:                  -9.983
REMARK INTRA:                  -0.791
REMARK UNBOUND:                -0.280
REMARK SMILES CCC(=O)n1cc2c3c(cccc31)C1=C[C@@H](C(=O)N(CC)CC)CN(C)[C@@H]1C2
REMARK SMILES IDX 25 1 5 2 27 3 14 4 28 5 16 6 24 7 7 8 9 9 8 10 15 11 13 12
REMARK SMILES IDX 6 13 26 14 10 15 12 16 11 17 17 18 18 19 19 20 20 21 21 22
REMARK SMILES IDX 22 23 23 24 3 25 4 26 2 27 1 28
REMARK H PARENT
ROOT
ATOM      1  N   UNL     1     107.942 136.804 125.928  1.00  0.00    -0.298 NA
ATOM      2  N   UNL     1     109.309 131.738 122.956  1.00  0.00    -0.287 N 
ATOM      3  C   UNL     1     108.207 135.384 125.604  1.00  0.00     0.091 C 
ATOM      4  C   UNL     1     107.128 134.378 126.075  1.00  0.00    -0.026 C 
ATOM      5  C   UNL     1     108.519 135.224 124.073  1.00  0.00     0.061 C 
ATOM      6  C   UNL     1     105.592 136.211 126.777  1.00  0.00     0.116 C 
ATOM      7  C   UNL     1     106.501 137.125 125.919  1.00  0.00     0.102 C 
ATOM      8  C   UNL     1     108.738 133.776 123.763  1.00  0.00    -0.019 A 
ATOM      9  C   UNL     1     107.407 132.959 125.760  1.00  0.00    -0.011 A 
ATOM     10  C   UNL     1     108.190 132.784 124.601  1.00  0.00     0.011 A 
ATOM     11  C   UNL     1     105.962 134.761 126.626  1.00  0.00    -0.007 C 
ATOM     12  C   UNL     1     108.542 131.523 124.117  1.00  0.00     0.056 A 
ATOM     13  C   UNL     1     109.413 133.123 122.769  1.00  0.00     0.099 A 
ATOM     14  C   UNL     1     108.569 137.199 127.188  1.00  0.00     0.106 C 
ATOM     15  C   UNL     1     106.972 131.828 126.446  1.00  0.00     0.009 A 
ATOM     16  C   UNL     1     108.100 130.385 124.822  1.00  0.00     0.027 A 
ATOM     17  C   UNL     1     107.321 130.561 125.980  1.00  0.00     0.003 A 
ENDROOT
BRANCH   6  18
ATOM     18  C   UNL     1     105.371 136.785 128.201  1.00  0.00     0.230 C 
ATOM     19  O   UNL     1     105.459 136.056 129.194  1.00  0.00    -0.274 OA
ATOM     20  N   UNL     1     105.293 138.181 128.334  1.00  0.00    -0.343 N 
BRANCH  20  21
ATOM     21  C   UNL     1     104.056 138.832 127.881  1.00  0.00     0.116 C 
ATOM     22  C   UNL     1     103.223 139.429 129.010  1.00  0.00     0.027 C 
ENDBRANCH  20  21
BRANCH  20  23
ATOM     23  C   UNL     1     105.905 138.710 129.558  1.00  0.00     0.116 C 
ATOM     24  C   UNL     1     107.046 139.683 129.305  1.00  0.00     0.027 C 
ENDBRANCH  20  23
ENDBRANCH   6  18
BRANCH   2  25
ATOM     25  C   UNL     1     109.917 130.822 122.062  1.00  0.00     0.230 C 
ATOM     26  O   UNL     1     111.040 131.074 121.634  1.00  0.00    -0.274 OA
BRANCH  25  27
ATOM     27  C   UNL     1     109.132 129.593 121.697  1.00  0.00     0.097 C 
ATOM     28  C   UNL     1     107.961 129.922 120.782  1.00  0.00     0.014 C 
ENDBRANCH  25  27
ENDBRANCH   2  25
TORSDOF 5
ENDMDL
MODEL 10
REMARK VINA RESULT:    -8.062      1.394      1.683
REMARK INTER + INTRA:         -10.698
REMARK INTER:                 -10.685
REMARK INTRA:                  -0.013
REMARK UNBOUND:                -0.280
REMARK SMILES CCC(=O)n1cc2c3c(cccc31)C1=C[C@@H](C(=O)N(CC)CC)CN(C)[C@@H]1C2
REMARK SMILES IDX 25 1 5 2 27 3 14 4 28 5 16 6 24 7 7 8 9 9 8 10 15 11 13 12
REMARK SMILES IDX 6 13 26 14 10 15 12 16 11 17 17 18 18 19 19 20 20 21 21 22
REMARK SMILES IDX 22 23 23 24 3 25 4 26 2 27 1 28
REMARK H PARENT
ROOT
ATOM      1  N   UNL     1     107.487 133.276 126.067  1.00  0.00    -0.298 NA
ATOM      2  N   UNL     1     108.758 139.148 126.589  1.00  0.00    -0.287 N 
ATOM      3  C   UNL     1     108.203 134.572 126.069  1.00  0.00     0.091 C 
ATOM      4  C   UNL     1     109.017 134.887 124.791  1.00  0.00    -0.026 C 
ATOM      5  C   UNL     1     107.216 135.739 126.429  1.00  0.00     0.061 C 
ATOM      6  C   UNL     1     108.101 132.897 123.603  1.00  0.00     0.116 C 
ATOM      7  C   UNL     1     107.028 132.887 124.720  1.00  0.00     0.102 C 
ATOM      8  C   UNL     1     107.952 137.041 126.380  1.00  0.00    -0.019 A 
ATOM      9  C   UNL     1     109.742 136.177 124.806  1.00  0.00    -0.011 A 
ATOM     10  C   UNL     1     109.124 137.161 125.604  1.00  0.00     0.011 A 
ATOM     11  C   UNL     1     108.984 134.111 123.692  1.00  0.00    -0.007 C 
ATOM     12  C   UNL     1     109.633 138.454 125.731  1.00  0.00     0.056 A 
ATOM     13  C   UNL     1     107.746 138.257 126.970  1.00  0.00     0.099 A 
ATOM     14  C   UNL     1     108.280 132.216 126.688  1.00  0.00     0.106 C 
ATOM     15  C   UNL     1     110.908 136.513 124.121  1.00  0.00     0.009 A 
ATOM     16  C   UNL     1     110.815 138.782 125.037  1.00  0.00     0.027 A 
ATOM     17  C   UNL     1     111.434 137.799 124.243  1.00  0.00     0.003 A 
ENDROOT
BRANCH   6  18
ATOM     18  C   UNL     1     108.758 131.503 123.418  1.00  0.00     0.230 C 
ATOM     19  O   UNL     1     108.584 130.610 124.253  1.00  0.00    -0.274 OA
ATOM     20  N   UNL     1     109.359 131.227 122.179  1.00  0.00    -0.343 N 
BRANCH  20  21
ATOM     21  C   UNL     1     110.650 131.871 121.899  1.00  0.00     0.116 C 
ATOM     22  C   UNL     1     111.541 131.080 120.947  1.00  0.00     0.027 C 
ENDBRANCH  20  21
BRANCH  20  23
ATOM     23  C   UNL     1     109.202 129.842 121.722  1.00  0.00     0.116 C 
ATOM     24  C   UNL     1     108.215 129.680 120.576  1.00  0.00     0.027 C 
ENDBRANCH  20  23
ENDBRANCH   6  18
BRANCH   2  25
ATOM     25  C   UNL     1     108.783 140.485 127.056  1.00  0.00     0.230 C 
ATOM     26  O   UNL     1     109.836 141.115 126.982  1.00  0.00    -0.274 OA
BRANCH  25  27
ATOM     27  C   UNL     1     107.505 141.043 127.616  1.00  0.00     0.097 C 
ATOM     28  C   UNL     1     106.827 141.992 126.639  1.00  0.00     0.014 C 
ENDBRANCH  25  27
ENDBRANCH   2  25
TORSDOF 5
ENDMDL
MODEL 11
REMARK VINA RESULT:    -8.021      2.908      7.820
REMARK INTER + INTRA:         -10.646
REMARK INTER:                 -10.185
REMARK INTRA:                  -0.461
REMARK UNBOUND:                -0.280
REMARK SMILES CCC(=O)n1cc2c3c(cccc31)C1=C[C@@H](C(=O)N(CC)CC)CN(C)[C@@H]1C2
REMARK SMILES IDX 25 1 5 2 27 3 14 4 28 5 16 6 24 7 7 8 9 9 8 10 15 11 13 12
REMARK SMILES IDX 6 13 26 14 10 15 12 16 11 17 17 18 18 19 19 20 20 21 21 22
REMARK SMILES IDX 22 23 23 24 3 25 4 26 2 27 1 28
REMARK H PARENT
ROOT
ATOM      1  N   UNL     1     104.778 135.094 127.041  1.00  0.00    -0.298 NA
ATOM      2  N   UNL     1     110.008 135.499 124.066  1.00  0.00    -0.287 N 
ATOM      3  C   UNL     1     105.979 135.631 126.361  1.00  0.00     0.091 C 
ATOM      4  C   UNL     1     106.767 136.707 127.146  1.00  0.00    -0.026 C 
ATOM      5  C   UNL     1     106.911 134.455 125.895  1.00  0.00     0.061 C 
ATOM      6  C   UNL     1     105.380 136.368 129.188  1.00  0.00     0.116 C 
ATOM      7  C   UNL     1     104.934 135.049 128.508  1.00  0.00     0.102 C 
ATOM      8  C   UNL     1     108.138 135.024 125.252  1.00  0.00    -0.019 A 
ATOM      9  C   UNL     1     107.958 137.249 126.454  1.00  0.00    -0.011 A 
ATOM     10  C   UNL     1     108.555 136.335 125.562  1.00  0.00     0.011 A 
ATOM     11  C   UNL     1     106.473 137.051 128.413  1.00  0.00    -0.007 C 
ATOM     12  C   UNL     1     109.703 136.640 124.831  1.00  0.00     0.056 A 
ATOM     13  C   UNL     1     109.033 134.532 124.342  1.00  0.00     0.099 A 
ATOM     14  C   UNL     1     103.568 135.816 126.654  1.00  0.00     0.106 C 
ATOM     15  C   UNL     1     108.539 138.505 126.606  1.00  0.00     0.009 A 
ATOM     16  C   UNL     1     110.282 137.916 124.990  1.00  0.00     0.027 A 
ATOM     17  C   UNL     1     109.684 138.830 125.877  1.00  0.00     0.003 A 
ENDROOT
BRANCH   6  18
ATOM     18  C   UNL     1     104.169 137.206 129.676  1.00  0.00     0.230 C 
ATOM     19  O   UNL     1     103.201 136.660 130.214  1.00  0.00    -0.274 OA
ATOM     20  N   UNL     1     104.309 138.604 129.690  1.00  0.00    -0.343 N 
BRANCH  20  21
ATOM     21  C   UNL     1     104.266 139.297 128.395  1.00  0.00     0.116 C 
ATOM     22  C   UNL     1     105.458 140.214 128.145  1.00  0.00     0.027 C 
ENDBRANCH  20  21
BRANCH  20  23
ATOM     23  C   UNL     1     103.646 139.271 130.815  1.00  0.00     0.116 C 
ATOM     24  C   UNL     1     102.483 140.160 130.405  1.00  0.00     0.027 C 
ENDBRANCH  20  23
ENDBRANCH   6  18
BRANCH   2  25
ATOM     25  C   UNL     1     111.064 135.247 123.155  1.00  0.00     0.230 C 
ATOM     26  O   UNL     1     112.089 135.919 123.240  1.00  0.00    -0.274 OA
BRANCH  25  27
ATOM     27  C   UNL     1     110.849 134.163 122.135  1.00  0.00     0.097 C 
ATOM     28  C   UNL     1     112.167 133.645 121.576  1.00  0.00     0.014 C 
ENDBRANCH  25  27
ENDBRANCH   2  25
TORSDOF 5
ENDMDL
MODEL 12
REMARK VINA RESULT:    -7.986      2.102      8.246
REMARK INTER + INTRA:         -10.601
REMARK INTER:                 -10.432
REMARK INTRA:                  -0.169
REMARK UNBOUND:                -0.280
REMARK SMILES CCC(=O)n1cc2c3c(cccc31)C1=C[C@@H](C(=O)N(CC)CC)CN(C)[C@@H]1C2
REMARK SMILES IDX 25 1 5 2 27 3 14 4 28 5 16 6 24 7 7 8 9 9 8 10 15 11 13 12
REMARK SMILES IDX 6 13 26 14 10 15 12 16 11 17 17 18 18 19 19 20 20 21 21 22
REMARK SMILES IDX 22 23 23 24 3 25 4 26 2 27 1 28
REMARK H PARENT
ROOT
ATOM      1  N   UNL     1     104.141 134.889 128.342  1.00  0.00    -0.298 NA
ATOM      2  N   UNL     1     108.101 131.524 125.282  1.00  0.00    -0.287 N 
ATOM      3  C   UNL     1     105.080 134.406 127.305  1.00  0.00     0.091 C 
ATOM      4  C   UNL     1     106.154 135.424 126.850  1.00  0.00    -0.026 C 
ATOM      5  C   UNL     1     105.725 133.043 127.746  1.00  0.00     0.061 C 
ATOM      6  C   UNL     1     105.503 137.046 128.626  1.00  0.00     0.116 C 
ATOM      7  C   UNL     1     104.771 135.845 129.273  1.00  0.00     0.102 C 
ATOM      8  C   UNL     1     106.703 132.600 126.703  1.00  0.00    -0.019 A 
ATOM      9  C   UNL     1     107.081 134.939 125.802  1.00  0.00    -0.011 A 
ATOM     10  C   UNL     1     107.285 133.545 125.834  1.00  0.00     0.011 A 
ATOM     11  C   UNL     1     106.320 136.623 127.436  1.00  0.00    -0.007 C 
ATOM     12  C   UNL     1     108.144 132.892 124.949  1.00  0.00     0.056 A 
ATOM     13  C   UNL     1     107.210 131.378 126.354  1.00  0.00     0.099 A 
ATOM     14  C   UNL     1     102.921 135.440 127.755  1.00  0.00     0.106 C 
ATOM     15  C   UNL     1     107.760 135.689 124.846  1.00  0.00     0.009 A 
ATOM     16  C   UNL     1     108.825 133.660 123.983  1.00  0.00     0.027 A 
ATOM     17  C   UNL     1     108.617 135.051 123.949  1.00  0.00     0.003 A 
ENDROOT
BRANCH   6  18
ATOM     18  C   UNL     1     104.582 138.288 128.500  1.00  0.00     0.230 C 
ATOM     19  O   UNL     1     103.477 138.199 127.957  1.00  0.00    -0.274 OA
ATOM     20  N   UNL     1     104.944 139.441 129.215  1.00  0.00    -0.343 N 
BRANCH  20  21
ATOM     21  C   UNL     1     106.072 140.228 128.696  1.00  0.00     0.116 C 
ATOM     22  C   UNL     1     106.280 140.090 127.191  1.00  0.00     0.027 C 
ENDBRANCH  20  21
BRANCH  20  23
ATOM     23  C   UNL     1     103.814 140.197 129.765  1.00  0.00     0.116 C 
ATOM     24  C   UNL     1     103.350 139.706 131.128  1.00  0.00     0.027 C 
ENDBRANCH  20  23
ENDBRANCH   6  18
BRANCH   2  25
ATOM     25  C   UNL     1     108.775 130.411 124.722  1.00  0.00     0.230 C 
ATOM     26  O   UNL     1     109.530 129.759 125.438  1.00  0.00    -0.274 OA
BRANCH  25  27
ATOM     27  C   UNL     1     108.515 130.106 123.273  1.00  0.00     0.097 C 
ATOM     28  C   UNL     1     109.616 130.652 122.375  1.00  0.00     0.014 C 
ENDBRANCH  25  27
ENDBRANCH   2  25
TORSDOF 5
ENDMDL
MODEL 13
REMARK VINA RESULT:    -7.973      2.389      7.715
REMARK INTER + INTRA:         -10.583
REMARK INTER:                  -9.841
REMARK INTRA:                  -0.742
REMARK UNBOUND:                -0.280
REMARK SMILES CCC(=O)n1cc2c3c(cccc31)C1=C[C@@H](C(=O)N(CC)CC)CN(C)[C@@H]1C2
REMARK SMILES IDX 25 1 5 2 27 3 14 4 28 5 16 6 24 7 7 8 9 9 8 10 15 11 13 12
REMARK SMILES IDX 6 13 26 14 10 15 12 16 11 17 17 18 18 19 19 20 20 21 21 22
REMARK SMILES IDX 22 23 23 24 3 25 4 26 2 27 1 28
REMARK H PARENT
ROOT
ATOM      1  N   UNL     1     108.540 137.305 126.356  1.00  0.00    -0.298 NA
ATOM      2  N   UNL     1     111.042 133.601 122.308  1.00  0.00    -0.287 N 
ATOM      3  C   UNL     1     108.924 136.093 125.598  1.00  0.00     0.091 C 
ATOM      4  C   UNL     1     107.754 135.177 125.164  1.00  0.00    -0.026 C 
ATOM      5  C   UNL     1     109.839 136.478 124.381  1.00  0.00     0.061 C 
ATOM      6  C   UNL     1     106.053 136.830 125.927  1.00  0.00     0.116 C 
ATOM      7  C   UNL     1     107.229 137.839 125.938  1.00  0.00     0.102 C 
ATOM      8  C   UNL     1     110.176 135.243 123.606  1.00  0.00    -0.019 A 
ATOM      9  C   UNL     1     108.147 133.959 124.420  1.00  0.00    -0.011 A 
ATOM     10  C   UNL     1     109.339 134.111 123.683  1.00  0.00     0.011 A 
ATOM     11  C   UNL     1     106.462 135.507 125.340  1.00  0.00    -0.007 C 
ATOM     12  C   UNL     1     109.867 133.090 122.891  1.00  0.00     0.056 A 
ATOM     13  C   UNL     1     111.205 134.915 122.766  1.00  0.00     0.099 A 
ATOM     14  C   UNL     1     108.591 137.082 127.800  1.00  0.00     0.106 C 
ATOM     15  C   UNL     1     107.476 132.741 124.355  1.00  0.00     0.009 A 
ATOM     16  C   UNL     1     109.181 131.859 122.836  1.00  0.00     0.027 A 
ATOM     17  C   UNL     1     107.994 131.708 123.574  1.00  0.00     0.003 A 
ENDROOT
BRANCH   6  18
ATOM     18  C   UNL     1     105.262 136.847 127.261  1.00  0.00     0.230 C 
ATOM     19  O   UNL     1     104.813 137.905 127.713  1.00  0.00    -0.274 OA
ATOM     20  N   UNL     1     104.886 135.610 127.810  1.00  0.00    -0.343 N 
BRANCH  20  21
ATOM     21  C   UNL     1     105.940 134.809 128.447  1.00  0.00     0.116 C 
ATOM     22  C   UNL     1     105.832 133.313 128.168  1.00  0.00     0.027 C 
ENDBRANCH  20  21
BRANCH  20  23
ATOM     23  C   UNL     1     103.573 135.609 128.464  1.00  0.00     0.116 C 
ATOM     24  C   UNL     1     102.494 134.881 127.676  1.00  0.00     0.027 C 
ENDBRANCH  20  23
ENDBRANCH   6  18
BRANCH   2  25
ATOM     25  C   UNL     1     111.970 133.007 121.416  1.00  0.00     0.230 C 
ATOM     26  O   UNL     1     111.554 132.209 120.580  1.00  0.00    -0.274 OA
BRANCH  25  27
ATOM     27  C   UNL     1     113.413 133.400 121.562  1.00  0.00     0.097 C 
ATOM     28  C   UNL     1     114.184 133.213 120.263  1.00  0.00     0.014 C 
ENDBRANCH  25  27
ENDBRANCH   2  25
TORSDOF 5
ENDMDL
MODEL 14
REMARK VINA RESULT:    -7.637      1.726      8.081
REMARK INTER + INTRA:         -10.149
REMARK INTER:                  -9.900
REMARK INTRA:                  -0.249
REMARK UNBOUND:                -0.280
REMARK SMILES CCC(=O)n1cc2c3c(cccc31)C1=C[C@@H](C(=O)N(CC)CC)CN(C)[C@@H]1C2
REMARK SMILES IDX 25 1 5 2 27 3 14 4 28 5 16 6 24 7 7 8 9 9 8 10 15 11 13 12
REMARK SMILES IDX 6 13 26 14 10 15 12 16 11 17 17 18 18 19 19 20 20 21 21 22
REMARK SMILES IDX 22 23 23 24 3 25 4 26 2 27 1 28
REMARK H PARENT
ROOT
ATOM      1  N   UNL     1     104.733 134.302 128.163  1.00  0.00    -0.298 NA
ATOM      2  N   UNL     1     108.364 131.248 124.441  1.00  0.00    -0.287 N 
ATOM      3  C   UNL     1     105.617 133.943 127.031  1.00  0.00     0.091 C 
ATOM      4  C   UNL     1     106.767 134.938 126.739  1.00  0.00    -0.026 C 
ATOM      5  C   UNL     1     106.151 132.476 127.201  1.00  0.00     0.061 C 
ATOM      6  C   UNL     1     106.274 136.256 128.795  1.00  0.00     0.116 C 
ATOM      7  C   UNL     1     105.451 135.019 129.234  1.00  0.00     0.102 C 
ATOM      8  C   UNL     1     107.077 132.154 126.070  1.00  0.00    -0.019 A 
ATOM      9  C   UNL     1     107.638 134.580 125.597  1.00  0.00    -0.011 A 
ATOM     10  C   UNL     1     107.726 133.192 125.371  1.00  0.00     0.011 A 
ATOM     11  C   UNL     1     107.038 135.994 127.528  1.00  0.00    -0.007 C 
ATOM     12  C   UNL     1     108.517 132.645 124.360  1.00  0.00     0.056 A 
ATOM     13  C   UNL     1     107.477 130.980 125.492  1.00  0.00     0.099 A 
ATOM     14  C   UNL     1     103.556 135.047 127.717  1.00  0.00     0.106 C 
ATOM     15  C   UNL     1     108.367 135.436 124.775  1.00  0.00     0.009 A 
ATOM     16  C   UNL     1     109.248 133.520 123.531  1.00  0.00     0.027 A 
ATOM     17  C   UNL     1     109.157 134.906 123.755  1.00  0.00     0.003 A 
ENDROOT
BRANCH   6  18
ATOM     18  C   UNL     1     105.457 137.569 128.921  1.00  0.00     0.230 C 
ATOM     19  O   UNL     1     104.223 137.543 128.949  1.00  0.00    -0.274 OA
ATOM     20  N   UNL     1     106.161 138.746 129.226  1.00  0.00    -0.343 N 
BRANCH  20  21
ATOM     21  C   UNL     1     106.962 139.348 128.151  1.00  0.00     0.116 C 
ATOM     22  C   UNL     1     108.409 139.627 128.541  1.00  0.00     0.027 C 
ENDBRANCH  20  21
BRANCH  20  23
ATOM     23  C   UNL     1     105.446 139.672 130.111  1.00  0.00     0.116 C 
ATOM     24  C   UNL     1     104.758 140.814 129.380  1.00  0.00     0.027 C 
ENDBRANCH  20  23
ENDBRANCH   6  18
BRANCH   2  25
ATOM     25  C   UNL     1     108.937 130.205 123.671  1.00  0.00     0.230 C 
ATOM     26  O   UNL     1     109.595 129.342 124.246  1.00  0.00    -0.274 OA
BRANCH  25  27
ATOM     27  C   UNL     1     108.695 130.232 122.188  1.00  0.00     0.097 C 
ATOM     28  C   UNL     1     109.984 130.454 121.409  1.00  0.00     0.014 C 
ENDBRANCH  25  27
ENDBRANCH   2  25
TORSDOF 5
ENDMDL
MODEL 15
REMARK VINA RESULT:    -7.549      2.006      8.279
REMARK INTER + INTRA:         -10.035
REMARK INTER:                  -9.812
REMARK INTRA:                  -0.223
REMARK UNBOUND:                -0.280
REMARK SMILES CCC(=O)n1cc2c3c(cccc31)C1=C[C@@H](C(=O)N(CC)CC)CN(C)[C@@H]1C2
REMARK SMILES IDX 25 1 5 2 27 3 14 4 28 5 16 6 24 7 7 8 9 9 8 10 15 11 13 12
REMARK SMILES IDX 6 13 26 14 10 15 12 16 11 17 17 18 18 19 19 20 20 21 21 22
REMARK SMILES IDX 22 23 23 24 3 25 4 26 2 27 1 28
REMARK H PARENT
ROOT
ATOM      1  N   UNL     1     104.837 134.796 127.861  1.00  0.00    -0.298 NA
ATOM      2  N   UNL     1     108.379 131.380 124.374  1.00  0.00    -0.287 N 
ATOM      3  C   UNL     1     105.743 134.343 126.781  1.00  0.00     0.091 C 
ATOM      4  C   UNL     1     106.985 135.233 126.533  1.00  0.00    -0.026 C 
ATOM      5  C   UNL     1     106.143 132.840 127.000  1.00  0.00     0.061 C 
ATOM      6  C   UNL     1     106.504 136.626 128.542  1.00  0.00     0.116 C 
ATOM      7  C   UNL     1     105.560 135.470 128.957  1.00  0.00     0.102 C 
ATOM      8  C   UNL     1     107.093 132.420 125.922  1.00  0.00    -0.019 A 
ATOM      9  C   UNL     1     107.878 134.782 125.441  1.00  0.00    -0.011 A 
ATOM     10  C   UNL     1     107.861 133.387 125.241  1.00  0.00     0.011 A 
ATOM     11  C   UNL     1     107.305 136.277 127.318  1.00  0.00    -0.007 C 
ATOM     12  C   UNL     1     108.652 132.757 124.279  1.00  0.00     0.056 A 
ATOM     13  C   UNL     1     107.421 131.207 125.382  1.00  0.00     0.099 A 
ATOM     14  C   UNL     1     103.751 135.627 127.346  1.00  0.00     0.106 C 
ATOM     15  C   UNL     1     108.716 135.559 124.645  1.00  0.00     0.009 A 
ATOM     16  C   UNL     1     109.494 133.553 123.476  1.00  0.00     0.027 A 
ATOM     17  C   UNL     1     109.508 134.946 123.674  1.00  0.00     0.003 A 
ENDROOT
BRANCH   6  18
ATOM     18  C   UNL     1     105.795 138.005 128.606  1.00  0.00     0.230 C 
ATOM     19  O   UNL     1     106.252 138.977 127.997  1.00  0.00    -0.274 OA
ATOM     20  N   UNL     1     104.517 138.052 129.186  1.00  0.00    -0.343 N 
BRANCH  20  21
ATOM     21  C   UNL     1     104.438 137.944 130.650  1.00  0.00     0.116 C 
ATOM     22  C   UNL     1     103.170 137.261 131.151  1.00  0.00     0.027 C 
ENDBRANCH  20  21
BRANCH  20  23
ATOM     23  C   UNL     1     103.592 138.994 128.545  1.00  0.00     0.116 C 
ATOM     24  C   UNL     1     103.353 140.264 129.346  1.00  0.00     0.027 C 
ENDBRANCH  20  23
ENDBRANCH   6  18
BRANCH   2  25
ATOM     25  C   UNL     1     108.899 130.278 123.649  1.00  0.00     0.230 C 
ATOM     26  O   UNL     1     109.504 129.403 124.263  1.00  0.00    -0.274 OA
BRANCH  25  27
ATOM     27  C   UNL     1     108.671 130.262 122.164  1.00  0.00     0.097 C 
ATOM     28  C   UNL     1     109.961 130.496 121.392  1.00  0.00     0.014 C 
ENDBRANCH  25  27
ENDBRANCH   2  25
TORSDOF 5
ENDMDL
MODEL 16
REMARK VINA RESULT:    -7.469      2.402      4.375
REMARK INTER + INTRA:          -9.932
REMARK INTER:                  -9.243
REMARK INTRA:                  -0.689
REMARK UNBOUND:                -0.280
REMARK SMILES CCC(=O)n1cc2c3c(cccc31)C1=C[C@@H](C(=O)N(CC)CC)CN(C)[C@@H]1C2
REMARK SMILES IDX 25 1 5 2 27 3 14 4 28 5 16 6 24 7 7 8 9 9 8 10 15 11 13 12
REMARK SMILES IDX 6 13 26 14 10 15 12 16 11 17 17 18 18 19 19 20 20 21 21 22
REMARK SMILES IDX 22 23 23 24 3 25 4 26 2 27 1 28
REMARK H PARENT
ROOT
ATOM      1  N   UNL     1     107.911 134.858 126.171  1.00  0.00    -0.298 NA
ATOM      2  N   UNL     1     104.944 139.046 129.338  1.00  0.00    -0.287 N 
ATOM      3  C   UNL     1     106.831 135.663 126.784  1.00  0.00     0.091 C 
ATOM      4  C   UNL     1     105.734 134.858 127.523  1.00  0.00    -0.026 C 
ATOM      5  C   UNL     1     107.440 136.785 127.699  1.00  0.00     0.061 C 
ATOM      6  C   UNL     1     107.000 132.726 127.275  1.00  0.00     0.116 C 
ATOM      7  C   UNL     1     108.209 133.635 126.941  1.00  0.00     0.102 C 
ATOM      8  C   UNL     1     106.329 137.555 128.343  1.00  0.00    -0.019 A 
ATOM      9  C   UNL     1     104.649 135.669 128.121  1.00  0.00    -0.011 A 
ATOM     10  C   UNL     1     105.058 136.964 128.496  1.00  0.00     0.011 A 
ATOM     11  C   UNL     1     105.807 133.529 127.716  1.00  0.00    -0.007 C 
ATOM     12  C   UNL     1     104.194 137.878 129.103  1.00  0.00     0.056 A 
ATOM     13  C   UNL     1     106.241 138.818 128.859  1.00  0.00     0.099 A 
ATOM     14  C   UNL     1     107.631 134.551 124.769  1.00  0.00     0.106 C 
ATOM     15  C   UNL     1     103.331 135.291 128.364  1.00  0.00     0.009 A 
ATOM     16  C   UNL     1     102.861 137.486 129.341  1.00  0.00     0.027 A 
ATOM     17  C   UNL     1     102.453 136.194 128.963  1.00  0.00     0.003 A 
ENDROOT
BRANCH   6  18
ATOM     18  C   UNL     1     106.803 131.610 126.215  1.00  0.00     0.230 C 
ATOM     19  O   UNL     1     105.672 131.313 125.817  1.00  0.00    -0.274 OA
ATOM     20  N   UNL     1     107.948 131.117 125.569  1.00  0.00    -0.343 N 
BRANCH  20  21
ATOM     21  C   UNL     1     108.824 130.226 126.343  1.00  0.00     0.116 C 
ATOM     22  C   UNL     1     108.083 129.349 127.346  1.00  0.00     0.027 C 
ENDBRANCH  20  21
BRANCH  20  23
ATOM     23  C   UNL     1     107.754 130.782 124.155  1.00  0.00     0.116 C 
ATOM     24  C   UNL     1     108.882 131.252 123.250  1.00  0.00     0.027 C 
ENDBRANCH  20  23
ENDBRANCH   6  18
BRANCH   2  25
ATOM     25  C   UNL     1     104.579 140.280 129.931  1.00  0.00     0.230 C 
ATOM     26  O   UNL     1     104.993 141.321 129.427  1.00  0.00    -0.274 OA
BRANCH  25  27
ATOM     27  C   UNL     1     103.703 140.224 131.151  1.00  0.00     0.097 C 
ATOM     28  C   UNL     1     102.408 140.999 130.952  1.00  0.00     0.014 C 
ENDBRANCH  25  27
ENDBRANCH   2  25
TORSDOF 5
ENDMDL
MODEL 17
REMARK VINA RESULT:    -7.399      3.078      5.450
REMARK INTER + INTRA:          -9.841
REMARK INTER:                  -8.907
REMARK INTRA:                  -0.935
REMARK UNBOUND:                -0.280
REMARK SMILES CCC(=O)n1cc2c3c(cccc31)C1=C[C@@H](C(=O)N(CC)CC)CN(C)[C@@H]1C2
REMARK SMILES IDX 25 1 5 2 27 3 14 4 28 5 16 6 24 7 7 8 9 9 8 10 15 11 13 12
REMARK SMILES IDX 6 13 26 14 10 15 12 16 11 17 17 18 18 19 19 20 20 21 21 22
REMARK SMILES IDX 22 23 23 24 3 25 4 26 2 27 1 28
REMARK H PARENT
ROOT
ATOM      1  N   UNL     1     106.996 136.141 126.531  1.00  0.00    -0.298 NA
ATOM      2  N   UNL     1     103.652 140.076 129.647  1.00  0.00    -0.287 N 
ATOM      3  C   UNL     1     105.860 136.799 127.217  1.00  0.00     0.091 C 
ATOM      4  C   UNL     1     105.071 135.909 128.207  1.00  0.00    -0.026 C 
ATOM      5  C   UNL     1     106.332 138.137 127.891  1.00  0.00     0.061 C 
ATOM      6  C   UNL     1     106.720 134.052 127.998  1.00  0.00     0.116 C 
ATOM      7  C   UNL     1     107.650 135.123 127.375  1.00  0.00     0.102 C 
ATOM      8  C   UNL     1     105.178 138.758 128.615  1.00  0.00    -0.019 A 
ATOM      9  C   UNL     1     103.928 136.568 128.878  1.00  0.00    -0.011 A 
ATOM     10  C   UNL     1     104.095 137.959 129.036  1.00  0.00     0.011 A 
ATOM     11  C   UNL     1     105.453 134.660 128.533  1.00  0.00    -0.007 C 
ATOM     12  C   UNL     1     103.145 138.762 129.667  1.00  0.00     0.056 A 
ATOM     13  C   UNL     1     104.891 140.041 128.995  1.00  0.00     0.099 A 
ATOM     14  C   UNL     1     106.603 135.590 125.236  1.00  0.00     0.106 C 
ATOM     15  C   UNL     1     102.767 135.978 129.369  1.00  0.00     0.009 A 
ATOM     16  C   UNL     1     101.971 138.155 130.159  1.00  0.00     0.027 A 
ATOM     17  C   UNL     1     101.803 136.768 129.997  1.00  0.00     0.003 A 
ENDROOT
BRANCH   6  18
ATOM     18  C   UNL     1     106.627 132.780 127.114  1.00  0.00     0.230 C 
ATOM     19  O   UNL     1     105.530 132.353 126.740  1.00  0.00    -0.274 OA
ATOM     20  N   UNL     1     107.821 132.273 126.577  1.00  0.00    -0.343 N 
BRANCH  20  21
ATOM     21  C   UNL     1     108.726 131.567 127.495  1.00  0.00     0.116 C 
ATOM     22  C   UNL     1     108.082 130.381 128.205  1.00  0.00     0.027 C 
ENDBRANCH  20  21
BRANCH  20  23
ATOM     23  C   UNL     1     107.693 131.719 125.225  1.00  0.00     0.116 C 
ATOM     24  C   UNL     1     108.325 132.581 124.143  1.00  0.00     0.027 C 
ENDBRANCH  20  23
ENDBRANCH   6  18
BRANCH   2  25
ATOM     25  C   UNL     1     103.113 141.286 130.150  1.00  0.00     0.230 C 
ATOM     26  O   UNL     1     103.820 141.992 130.865  1.00  0.00    -0.274 OA
BRANCH  25  27
ATOM     27  C   UNL     1     101.698 141.621 129.770  1.00  0.00     0.097 C 
ATOM     28  C   UNL     1     100.778 141.641 130.982  1.00  0.00     0.014 C 
ENDBRANCH  25  27
ENDBRANCH   2  25
TORSDOF 5
ENDMDL
MODEL 18
REMARK VINA RESULT:    -7.323      1.515      1.943
REMARK INTER + INTRA:          -9.743
REMARK INTER:                  -8.988
REMARK INTRA:                  -0.756
REMARK UNBOUND:                -0.280
REMARK SMILES CCC(=O)n1cc2c3c(cccc31)C1=C[C@@H](C(=O)N(CC)CC)CN(C)[C@@H]1C2
REMARK SMILES IDX 25 1 5 2 27 3 14 4 28 5 16 6 24 7 7 8 9 9 8 10 15 11 13 12
REMARK SMILES IDX 6 13 26 14 10 15 12 16 11 17 17 18 18 19 19 20 20 21 21 22
REMARK SMILES IDX 22 23 23 24 3 25 4 26 2 27 1 28
REMARK H PARENT
ROOT
ATOM      1  N   UNL     1     107.805 131.323 125.457  1.00  0.00    -0.298 NA
ATOM      2  N   UNL     1     107.093 136.739 128.012  1.00  0.00    -0.287 N 
ATOM      3  C   UNL     1     108.026 132.723 125.887  1.00  0.00     0.091 C 
ATOM      4  C   UNL     1     108.411 133.714 124.762  1.00  0.00    -0.026 C 
ATOM      5  C   UNL     1     106.796 133.238 126.716  1.00  0.00     0.061 C 
ATOM      6  C   UNL     1     108.004 132.009 122.991  1.00  0.00     0.116 C 
ATOM      7  C   UNL     1     107.244 131.233 124.096  1.00  0.00     0.102 C 
ATOM      8  C   UNL     1     107.023 134.667 127.099  1.00  0.00    -0.019 A 
ATOM      9  C   UNL     1     108.645 135.108 125.201  1.00  0.00    -0.011 A 
ATOM     10  C   UNL     1     107.903 135.469 126.344  1.00  0.00     0.011 A 
ATOM     11  C   UNL     1     108.423 133.375 123.460  1.00  0.00    -0.007 C 
ATOM     12  C   UNL     1     107.960 136.746 126.903  1.00  0.00     0.056 A 
ATOM     13  C   UNL     1     106.540 135.455 128.107  1.00  0.00     0.099 A 
ATOM     14  C   UNL     1     109.017 130.517 125.590  1.00  0.00     0.106 C 
ATOM     15  C   UNL     1     109.466 136.066 124.611  1.00  0.00     0.009 A 
ATOM     16  C   UNL     1     108.797 137.708 126.300  1.00  0.00     0.027 A 
ATOM     17  C   UNL     1     109.539 137.346 125.161  1.00  0.00     0.003 A 
ENDROOT
BRANCH   6  18
ATOM     18  C   UNL     1     109.042 131.114 122.264  1.00  0.00     0.230 C 
ATOM     19  O   UNL     1     110.249 131.230 122.499  1.00  0.00    -0.274 OA
ATOM     20  N   UNL     1     108.554 130.033 121.511  1.00  0.00    -0.343 N 
BRANCH  20  21
ATOM     21  C   UNL     1     107.920 130.343 120.222  1.00  0.00     0.116 C 
ATOM     22  C   UNL     1     106.444 129.964 120.153  1.00  0.00     0.027 C 
ENDBRANCH  20  21
BRANCH  20  23
ATOM     23  C   UNL     1     109.393 128.831 121.559  1.00  0.00     0.116 C 
ATOM     24  C   UNL     1     110.288 128.655 120.342  1.00  0.00     0.027 C 
ENDBRANCH  20  23
ENDBRANCH   6  18
BRANCH   2  25
ATOM     25  C   UNL     1     106.757 137.760 128.935  1.00  0.00     0.230 C 
ATOM     26  O   UNL     1     107.642 138.522 129.318  1.00  0.00    -0.274 OA
BRANCH  25  27
ATOM     27  C   UNL     1     105.326 137.838 129.386  1.00  0.00     0.097 C 
ATOM     28  C   UNL     1     104.488 138.706 128.459  1.00  0.00     0.014 C 
ENDBRANCH  25  27
ENDBRANCH   2  25
TORSDOF 5
ENDMDL
MODEL 19
REMARK VINA RESULT:    -7.126      1.506      2.068
REMARK INTER + INTRA:          -9.488
REMARK INTER:                  -8.874
REMARK INTRA:                  -0.615
REMARK UNBOUND:                -0.280
REMARK SMILES CCC(=O)n1cc2c3c(cccc31)C1=C[C@@H](C(=O)N(CC)CC)CN(C)[C@@H]1C2
REMARK SMILES IDX 25 1 5 2 27 3 14 4 28 5 16 6 24 7 7 8 9 9 8 10 15 11 13 12
REMARK SMILES IDX 6 13 26 14 10 15 12 16 11 17 17 18 18 19 19 20 20 21 21 22
REMARK SMILES IDX 22 23 23 24 3 25 4 26 2 27 1 28
REMARK H PARENT
ROOT
ATOM      1  N   UNL     1     107.194 132.609 126.619  1.00  0.00    -0.298 NA
ATOM      2  N   UNL     1     106.004 138.108 128.790  1.00  0.00    -0.287 N 
ATOM      3  C   UNL     1     107.300 134.045 126.966  1.00  0.00     0.091 C 
ATOM      4  C   UNL     1     107.665 134.990 125.795  1.00  0.00    -0.026 C 
ATOM      5  C   UNL     1     106.002 134.522 127.711  1.00  0.00     0.061 C 
ATOM      6  C   UNL     1     107.453 133.155 124.123  1.00  0.00     0.116 C 
ATOM      7  C   UNL     1     106.700 132.396 125.244  1.00  0.00     0.102 C 
ATOM      8  C   UNL     1     106.114 135.984 128.010  1.00  0.00    -0.019 A 
ATOM      9  C   UNL     1     107.784 136.421 126.153  1.00  0.00    -0.011 A 
ATOM     10  C   UNL     1     106.971 136.799 127.240  1.00  0.00     0.011 A 
ATOM     11  C   UNL     1     107.757 134.573 124.520  1.00  0.00    -0.007 C 
ATOM     12  C   UNL     1     106.915 138.109 127.718  1.00  0.00     0.056 A 
ATOM     13  C   UNL     1     105.535 136.797 128.946  1.00  0.00     0.099 A 
ATOM     14  C   UNL     1     108.451 131.901 126.851  1.00  0.00     0.106 C 
ATOM     15  C   UNL     1     108.563 137.396 125.535  1.00  0.00     0.009 A 
ATOM     16  C   UNL     1     107.710 139.088 127.087  1.00  0.00     0.027 A 
ATOM     17  C   UNL     1     108.525 138.710 126.004  1.00  0.00     0.003 A 
ENDROOT
BRANCH   6  18
ATOM     18  C   UNL     1     108.580 132.292 123.496  1.00  0.00     0.230 C 
ATOM     19  O   UNL     1     109.729 132.735 123.395  1.00  0.00    -0.274 OA
ATOM     20  N   UNL     1     108.305 130.935 123.259  1.00  0.00    -0.343 N 
BRANCH  20  21
ATOM     21  C   UNL     1     107.430 130.615 122.124  1.00  0.00     0.116 C 
ATOM     22  C   UNL     1     108.153 129.959 120.952  1.00  0.00     0.027 C 
ENDBRANCH  20  21
BRANCH  20  23
ATOM     23  C   UNL     1     109.441 130.036 123.489  1.00  0.00     0.116 C 
ATOM     24  C   UNL     1     109.553 129.540 124.922  1.00  0.00     0.027 C 
ENDBRANCH  20  23
ENDBRANCH   6  18
BRANCH   2  25
ATOM     25  C   UNL     1     105.559 139.158 129.632  1.00  0.00     0.230 C 
ATOM     26  O   UNL     1     106.369 140.012 129.985  1.00  0.00    -0.274 OA
BRANCH  25  27
ATOM     27  C   UNL     1     104.112 139.150 130.038  1.00  0.00     0.097 C 
ATOM     28  C   UNL     1     103.200 139.549 128.886  1.00  0.00     0.014 C 
ENDBRANCH  25  27
ENDBRANCH   2  25
TORSDOF 5
ENDMDL
MODEL 20
REMARK VINA RESULT:    -6.778      1.994      8.314
REMARK INTER + INTRA:          -9.039
REMARK INTER:                  -9.046
REMARK INTRA:                   0.007
REMARK UNBOUND:                -0.280
REMARK SMILES CCC(=O)n1cc2c3c(cccc31)C1=C[C@@H](C(=O)N(CC)CC)CN(C)[C@@H]1C2
REMARK SMILES IDX 25 1 5 2 27 3 14 4 28 5 16 6 24 7 7 8 9 9 8 10 15 11 13 12
REMARK SMILES IDX 6 13 26 14 10 15 12 16 11 17 17 18 18 19 19 20 20 21 21 22
REMARK SMILES IDX 22 23 23 24 3 25 4 26 2 27 1 28
REMARK H PARENT
ROOT
ATOM      1  N   UNL     1     103.951 135.244 128.861  1.00  0.00    -0.298 NA
ATOM      2  N   UNL     1     107.843 132.178 125.421  1.00  0.00    -0.287 N 
ATOM      3  C   UNL     1     104.903 134.876 127.788  1.00  0.00     0.091 C 
ATOM      4  C   UNL     1     106.045 135.889 127.532  1.00  0.00    -0.026 C 
ATOM      5  C   UNL     1     105.458 133.426 128.025  1.00  0.00     0.061 C 
ATOM      6  C   UNL     1     105.414 137.247 129.523  1.00  0.00     0.116 C 
ATOM      7  C   UNL     1     104.596 136.003 129.950  1.00  0.00     0.102 C 
ATOM      8  C   UNL     1     106.451 133.096 126.954  1.00  0.00    -0.019 A 
ATOM      9  C   UNL     1     106.984 135.522 126.448  1.00  0.00    -0.011 A 
ATOM     10  C   UNL     1     107.114 134.130 126.264  1.00  0.00     0.011 A 
ATOM     11  C   UNL     1     106.252 136.970 128.305  1.00  0.00    -0.007 C 
ATOM     12  C   UNL     1     107.970 133.576 125.311  1.00  0.00     0.056 A 
ATOM     13  C   UNL     1     106.906 131.917 126.430  1.00  0.00     0.099 A 
ATOM     14  C   UNL     1     102.785 135.950 128.334  1.00  0.00     0.106 C 
ATOM     15  C   UNL     1     107.739 136.372 125.644  1.00  0.00     0.009 A 
ATOM     16  C   UNL     1     108.727 134.446 124.500  1.00  0.00     0.027 A 
ATOM     17  C   UNL     1     108.594 135.835 124.682  1.00  0.00     0.003 A 
ENDROOT
BRANCH   6  18
ATOM     18  C   UNL     1     104.565 138.544 129.570  1.00  0.00     0.230 C 
ATOM     19  O   UNL     1     103.437 138.540 130.073  1.00  0.00    -0.274 OA
ATOM     20  N   UNL     1     105.201 139.751 129.233  1.00  0.00    -0.343 N 
BRANCH  20  21
ATOM     21  C   UNL     1     105.482 139.988 127.811  1.00  0.00     0.116 C 
ATOM     22  C   UNL     1     106.894 140.495 127.537  1.00  0.00     0.027 C 
ENDBRANCH  20  21
BRANCH  20  23
ATOM     23  C   UNL     1     104.763 140.909 130.020  1.00  0.00     0.116 C 
ATOM     24  C   UNL     1     103.434 141.493 129.569  1.00  0.00     0.027 C 
ENDBRANCH  20  23
ENDBRANCH   6  18
BRANCH   2  25
ATOM     25  C   UNL     1     108.478 131.129 124.711  1.00  0.00     0.230 C 
ATOM     26  O   UNL     1     108.975 130.204 125.347  1.00  0.00    -0.274 OA
BRANCH  25  27
ATOM     27  C   UNL     1     108.500 131.228 123.211  1.00  0.00     0.097 C 
ATOM     28  C   UNL     1     109.069 129.970 122.571  1.00  0.00     0.014 C 
ENDBRANCH  25  27
ENDBRANCH   2  25
TORSDOF 5
ENDMDL
