MODEL 1
REMARK VINA RESULT:    -8.727      0.000      0.000
REMARK INTER + INTRA:         -12.066
REMARK INTER:                 -11.278
REMARK INTRA:                  -0.788
REMARK UNBOUND:                -0.788
REMARK SMILES CCC(=O)n1cc2c3c(cccc31)C1=C[C@@H](C(=O)N(CC)CC)CN(C)[C@@H]1C2
REMARK SMILES IDX 25 1 5 2 27 3 14 4 28 5 16 6 24 7 7 8 9 9 8 10 15 11 13 12
REMARK SMILES IDX 6 13 26 14 10 15 12 16 11 17 17 18 18 19 19 20 20 21 21 22
REMARK SMILES IDX 22 23 23 24 3 25 4 26 2 27 1 28
REMARK H PARENT
ROOT
ATOM      1  N   UNL     1      91.350 122.230 120.741  1.00  0.00    -0.298 NA
ATOM      2  N   UNL     1      94.549 123.442 115.774  1.00  0.00    -0.287 N 
ATOM      3  C   UNL     1      92.244 122.096 119.569  1.00  0.00     0.091 C 
ATOM      4  C   UNL     1      91.954 120.892 118.641  1.00  0.00    -0.026 C 
ATOM      5  C   UNL     1      92.297 123.446 118.766  1.00  0.00     0.061 C 
ATOM      6  C   UNL     1      89.857 120.333 119.866  1.00  0.00     0.116 C 
ATOM      7  C   UNL     1      89.980 121.758 120.461  1.00  0.00     0.102 C 
ATOM      8  C   UNL     1      93.170 123.271 117.563  1.00  0.00    -0.019 A 
ATOM      9  C   UNL     1      92.861 120.756 117.479  1.00  0.00    -0.011 A 
ATOM     10  C   UNL     1      93.386 121.984 117.029  1.00  0.00     0.011 A 
ATOM     11  C   UNL     1      90.888 120.086 118.799  1.00  0.00    -0.007 C 
ATOM     12  C   UNL     1      94.240 122.077 115.930  1.00  0.00     0.056 A 
ATOM     13  C   UNL     1      93.883 124.143 116.788  1.00  0.00     0.099 A 
ATOM     14  C   UNL     1      91.907 121.582 121.927  1.00  0.00     0.106 C 
ATOM     15  C   UNL     1      93.214 119.593 116.800  1.00  0.00     0.009 A 
ATOM     16  C   UNL     1      94.594 120.893 115.251  1.00  0.00     0.027 A 
ATOM     17  C   UNL     1      94.073 119.667 115.703  1.00  0.00     0.003 A 
ENDROOT
BRANCH   6  18
ATOM     18  C   UNL     1      89.646 119.261 120.967  1.00  0.00     0.230 C 
ATOM     19  O   UNL     1      90.354 118.250 121.006  1.00  0.00    -0.274 OA
ATOM     20  N   UNL     1      88.788 119.583 122.032  1.00  0.00    -0.343 N 
BRANCH  20  21
ATOM     21  C   UNL     1      87.345 119.583 121.757  1.00  0.00     0.116 C 
ATOM     22  C   UNL     1      86.644 118.282 122.134  1.00  0.00     0.027 C 
ENDBRANCH  20  21
BRANCH  20  23
ATOM     23  C   UNL     1      89.210 119.053 123.334  1.00  0.00     0.116 C 
ATOM     24  C   UNL     1      89.651 120.124 124.320  1.00  0.00     0.027 C 
ENDBRANCH  20  23
ENDBRANCH   6  18
BRANCH   2  25
ATOM     25  C   UNL     1      95.360 124.108 114.823  1.00  0.00     0.230 C 
ATOM     26  O   UNL     1      96.517 123.726 114.665  1.00  0.00    -0.274 OA
BRANCH  25  27
ATOM     27  C   UNL     1      94.739 125.249 114.067  1.00  0.00     0.097 C 
ATOM     28  C   UNL     1      95.141 126.597 114.650  1.00  0.00     0.014 C 
ENDBRANCH  25  27
ENDBRANCH   2  25
TORSDOF 5
ENDMDL
MODEL 2
REMARK VINA RESULT:    -8.644      1.624      2.008
REMARK INTER + INTRA:         -11.959
REMARK INTER:                 -11.405
REMARK INTRA:                  -0.554
REMARK UNBOUND:                -0.788
REMARK SMILES CCC(=O)n1cc2c3c(cccc31)C1=C[C@@H](C(=O)N(CC)CC)CN(C)[C@@H]1C2
REMARK SMILES IDX 25 1 5 2 27 3 14 4 28 5 16 6 24 7 7 8 9 9 8 10 15 11 13 12
REMARK SMILES IDX 6 13 26 14 10 15 12 16 11 17 17 18 18 19 19 20 20 21 21 22
REMARK SMILES IDX 22 23 23 24 3 25 4 26 2 27 1 28
REMARK H PARENT
ROOT
ATOM      1  N   UNL     1      92.920 120.403 120.429  1.00  0.00    -0.298 NA
ATOM      2  N   UNL     1      94.802 121.914 114.902  1.00  0.00    -0.287 N 
ATOM      3  C   UNL     1      93.133 120.418 118.963  1.00  0.00     0.091 C 
ATOM      4  C   UNL     1      91.851 120.330 118.101  1.00  0.00    -0.026 C 
ATOM      5  C   UNL     1      94.022 121.647 118.555  1.00  0.00     0.061 C 
ATOM      6  C   UNL     1      90.379 120.557 120.099  1.00  0.00     0.116 C 
ATOM      7  C   UNL     1      91.655 121.054 120.821  1.00  0.00     0.102 C 
ATOM      8  C   UNL     1      94.185 121.665 117.067  1.00  0.00    -0.019 A 
ATOM      9  C   UNL     1      92.072 120.331 116.637  1.00  0.00    -0.011 A 
ATOM     10  C   UNL     1      93.235 121.024 116.245  1.00  0.00     0.011 A 
ATOM     11  C   UNL     1      90.612 120.368 118.625  1.00  0.00    -0.007 C 
ATOM     12  C   UNL     1      93.610 121.166 114.908  1.00  0.00     0.056 A 
ATOM     13  C   UNL     1      95.129 122.200 116.234  1.00  0.00     0.099 A 
ATOM     14  C   UNL     1      93.019 119.052 120.977  1.00  0.00     0.106 C 
ATOM     15  C   UNL     1      91.271 119.764 115.650  1.00  0.00     0.009 A 
ATOM     16  C   UNL     1      92.793 120.585 113.916  1.00  0.00     0.027 A 
ATOM     17  C   UNL     1      91.635 119.890 114.309  1.00  0.00     0.003 A 
ENDROOT
BRANCH   6  18
ATOM     18  C   UNL     1      89.662 119.435 120.895  1.00  0.00     0.230 C 
ATOM     19  O   UNL     1      89.928 118.247 120.687  1.00  0.00    -0.274 OA
ATOM     20  N   UNL     1      88.880 119.817 121.997  1.00  0.00    -0.343 N 
BRANCH  20  21
ATOM     21  C   UNL     1      87.582 120.445 121.716  1.00  0.00     0.116 C 
ATOM     22  C   UNL     1      87.541 121.940 122.013  1.00  0.00     0.027 C 
ENDBRANCH  20  21
BRANCH  20  23
ATOM     23  C   UNL     1      88.928 118.887 123.130  1.00  0.00     0.116 C 
ATOM     24  C   UNL     1      87.761 117.914 123.178  1.00  0.00     0.027 C 
ENDBRANCH  20  23
ENDBRANCH   6  18
BRANCH   2  25
ATOM     25  C   UNL     1      95.615 122.357 113.828  1.00  0.00     0.230 C 
ATOM     26  O   UNL     1      95.664 121.675 112.807  1.00  0.00    -0.274 OA
BRANCH  25  27
ATOM     27  C   UNL     1      96.368 123.643 114.021  1.00  0.00     0.097 C 
ATOM     28  C   UNL     1      95.550 124.848 113.579  1.00  0.00     0.014 C 
ENDBRANCH  25  27
ENDBRANCH   2  25
TORSDOF 5
ENDMDL
MODEL 3
REMARK VINA RESULT:    -8.395      4.318      6.264
REMARK INTER + INTRA:         -11.637
REMARK INTER:                 -10.634
REMARK INTRA:                  -1.003
REMARK UNBOUND:                -0.788
REMARK SMILES CCC(=O)n1cc2c3c(cccc31)C1=C[C@@H](C(=O)N(CC)CC)CN(C)[C@@H]1C2
REMARK SMILES IDX 25 1 5 2 27 3 14 4 28 5 16 6 24 7 7 8 9 9 8 10 15 11 13 12
REMARK SMILES IDX 6 13 26 14 10 15 12 16 11 17 17 18 18 19 19 20 20 21 21 22
REMARK SMILES IDX 22 23 23 24 3 25 4 26 2 27 1 28
REMARK H PARENT
ROOT
ATOM      1  N   UNL     1      90.270 125.525 121.918  1.00  0.00    -0.298 NA
ATOM      2  N   UNL     1      92.068 120.625 118.898  1.00  0.00    -0.287 N 
ATOM      3  C   UNL     1      90.576 124.123 121.554  1.00  0.00     0.091 C 
ATOM      4  C   UNL     1      89.431 123.107 121.784  1.00  0.00    -0.026 C 
ATOM      5  C   UNL     1      91.128 124.050 120.085  1.00  0.00     0.061 C 
ATOM      6  C   UNL     1      87.812 124.918 122.344  1.00  0.00     0.116 C 
ATOM      7  C   UNL     1      88.852 125.868 121.699  1.00  0.00     0.102 C 
ATOM      8  C   UNL     1      91.386 122.619 119.726  1.00  0.00    -0.019 A 
ATOM      9  C   UNL     1      89.749 121.705 121.432  1.00  0.00    -0.011 A 
ATOM     10  C   UNL     1      90.706 121.587 120.404  1.00  0.00     0.011 A 
ATOM     11  C   UNL     1      88.193 123.474 122.166  1.00  0.00    -0.007 C 
ATOM     12  C   UNL     1      91.124 120.353 119.906  1.00  0.00     0.056 A 
ATOM     13  C   UNL     1      92.208 122.016 118.814  1.00  0.00     0.099 A 
ATOM     14  C   UNL     1      90.690 125.835 123.284  1.00  0.00     0.106 C 
ATOM     15  C   UNL     1      89.204 120.542 121.970  1.00  0.00     0.009 A 
ATOM     16  C   UNL     1      90.569 119.181 120.460  1.00  0.00     0.027 A 
ATOM     17  C   UNL     1      89.615 119.300 121.488  1.00  0.00     0.003 A 
ENDROOT
BRANCH   6  18
ATOM     18  C   UNL     1      87.369 125.409 123.747  1.00  0.00     0.230 C 
ATOM     19  O   UNL     1      87.394 124.647 124.718  1.00  0.00    -0.274 OA
ATOM     20  N   UNL     1      87.159 126.788 123.917  1.00  0.00    -0.343 N 
BRANCH  20  21
ATOM     21  C   UNL     1      85.938 127.359 123.332  1.00  0.00     0.116 C 
ATOM     22  C   UNL     1      86.194 128.274 122.139  1.00  0.00     0.027 C 
ENDBRANCH  20  21
BRANCH  20  23
ATOM     23  C   UNL     1      87.568 127.309 125.225  1.00  0.00     0.116 C 
ATOM     24  C   UNL     1      88.596 128.427 125.149  1.00  0.00     0.027 C 
ENDBRANCH  20  23
ENDBRANCH   6  18
BRANCH   2  25
ATOM     25  C   UNL     1      92.806 119.754 118.057  1.00  0.00     0.230 C 
ATOM     26  O   UNL     1      93.838 119.251 118.493  1.00  0.00    -0.274 OA
BRANCH  25  27
ATOM     27  C   UNL     1      92.266 119.509 116.676  1.00  0.00     0.097 C 
ATOM     28  C   UNL     1      90.834 118.992 116.714  1.00  0.00     0.014 C 
ENDBRANCH  25  27
ENDBRANCH   2  25
TORSDOF 5
ENDMDL
MODEL 4
REMARK VINA RESULT:    -8.380      1.706      8.704
REMARK INTER + INTRA:         -11.618
REMARK INTER:                 -11.013
REMARK INTRA:                  -0.605
REMARK UNBOUND:                -0.788
REMARK SMILES CCC(=O)n1cc2c3c(cccc31)C1=C[C@@H](C(=O)N(CC)CC)CN(C)[C@@H]1C2
REMARK SMILES IDX 25 1 5 2 27 3 14 4 28 5 16 6 24 7 7 8 9 9 8 10 15 11 13 12
REMARK SMILES IDX 6 13 26 14 10 15 12 16 11 17 17 18 18 19 19 20 20 21 21 22
REMARK SMILES IDX 22 23 23 24 3 25 4 26 2 27 1 28
REMARK H PARENT
ROOT
ATOM      1  N   UNL     1      93.499 120.855 117.518  1.00  0.00    -0.298 NA
ATOM      2  N   UNL     1      89.202 119.694 121.588  1.00  0.00    -0.287 N 
ATOM      3  C   UNL     1      92.654 120.901 118.733  1.00  0.00     0.091 C 
ATOM      4  C   UNL     1      92.140 122.305 119.136  1.00  0.00    -0.026 C 
ATOM      5  C   UNL     1      91.479 119.865 118.619  1.00  0.00     0.061 C 
ATOM      6  C   UNL     1      93.011 123.329 117.038  1.00  0.00     0.116 C 
ATOM      7  C   UNL     1      93.111 121.872 116.522  1.00  0.00     0.102 C 
ATOM      8  C   UNL     1      90.614 119.964 119.837  1.00  0.00    -0.019 A 
ATOM      9  C   UNL     1      91.308 122.346 120.360  1.00  0.00    -0.011 A 
ATOM     10  C   UNL     1      90.596 121.152 120.596  1.00  0.00     0.011 A 
ATOM     11  C   UNL     1      92.329 123.399 118.376  1.00  0.00    -0.007 C 
ATOM     12  C   UNL     1      89.734 120.995 121.681  1.00  0.00     0.056 A 
ATOM     13  C   UNL     1      89.762 119.090 120.454  1.00  0.00     0.099 A 
ATOM     14  C   UNL     1      94.922 120.940 117.843  1.00  0.00     0.106 C 
ATOM     15  C   UNL     1      91.143 123.405 121.248  1.00  0.00     0.009 A 
ATOM     16  C   UNL     1      89.577 122.072 122.577  1.00  0.00     0.027 A 
ATOM     17  C   UNL     1      90.290 123.262 122.343  1.00  0.00     0.003 A 
ENDROOT
BRANCH   6  18
ATOM     18  C   UNL     1      94.335 124.111 116.830  1.00  0.00     0.230 C 
ATOM     19  O   UNL     1      95.022 124.454 117.797  1.00  0.00    -0.274 OA
ATOM     20  N   UNL     1      94.831 124.212 115.520  1.00  0.00    -0.343 N 
BRANCH  20  21
ATOM     21  C   UNL     1      94.143 125.139 114.610  1.00  0.00     0.116 C 
ATOM     22  C   UNL     1      94.777 126.524 114.543  1.00  0.00     0.027 C 
ENDBRANCH  20  21
BRANCH  20  23
ATOM     23  C   UNL     1      96.293 124.153 115.415  1.00  0.00     0.116 C 
ATOM     24  C   UNL     1      96.793 123.505 114.134  1.00  0.00     0.027 C 
ENDBRANCH  20  23
ENDBRANCH   6  18
BRANCH   2  25
ATOM     25  C   UNL     1      88.277 119.008 122.412  1.00  0.00     0.230 C 
ATOM     26  O   UNL     1      87.714 119.630 123.310  1.00  0.00    -0.274 OA
BRANCH  25  27
ATOM     27  C   UNL     1      88.049 117.550 122.126  1.00  0.00     0.097 C 
ATOM     28  C   UNL     1      87.390 116.841 123.301  1.00  0.00     0.014 C 
ENDBRANCH  25  27
ENDBRANCH   2  25
TORSDOF 5
ENDMDL
MODEL 5
REMARK VINA RESULT:    -8.293      4.421      6.418
REMARK INTER + INTRA:         -11.506
REMARK INTER:                 -10.509
REMARK INTRA:                  -0.996
REMARK UNBOUND:                -0.788
REMARK SMILES CCC(=O)n1cc2c3c(cccc31)C1=C[C@@H](C(=O)N(CC)CC)CN(C)[C@@H]1C2
REMARK SMILES IDX 25 1 5 2 27 3 14 4 28 5 16 6 24 7 7 8 9 9 8 10 15 11 13 12
REMARK SMILES IDX 6 13 26 14 10 15 12 16 11 17 17 18 18 19 19 20 20 21 21 22
REMARK SMILES IDX 22 23 23 24 3 25 4 26 2 27 1 28
REMARK H PARENT
ROOT
ATOM      1  N   UNL     1      90.061 125.497 122.111  1.00  0.00    -0.298 NA
ATOM      2  N   UNL     1      91.813 120.613 119.037  1.00  0.00    -0.287 N 
ATOM      3  C   UNL     1      90.354 124.096 121.732  1.00  0.00     0.091 C 
ATOM      4  C   UNL     1      89.200 123.088 121.953  1.00  0.00    -0.026 C 
ATOM      5  C   UNL     1      90.904 124.034 120.262  1.00  0.00     0.061 C 
ATOM      6  C   UNL     1      87.598 124.907 122.533  1.00  0.00     0.116 C 
ATOM      7  C   UNL     1      88.645 125.854 121.897  1.00  0.00     0.102 C 
ATOM      8  C   UNL     1      91.149 122.605 119.887  1.00  0.00    -0.019 A 
ATOM      9  C   UNL     1      89.506 121.687 121.585  1.00  0.00    -0.011 A 
ATOM     10  C   UNL     1      90.461 121.572 120.556  1.00  0.00     0.011 A 
ATOM     11  C   UNL     1      87.967 123.462 122.339  1.00  0.00    -0.007 C 
ATOM     12  C   UNL     1      90.868 120.339 120.044  1.00  0.00     0.056 A 
ATOM     13  C   UNL     1      91.965 122.005 118.968  1.00  0.00     0.099 A 
ATOM     14  C   UNL     1      90.485 125.789 123.479  1.00  0.00     0.106 C 
ATOM     15  C   UNL     1      88.951 120.524 122.111  1.00  0.00     0.009 A 
ATOM     16  C   UNL     1      90.303 119.167 120.586  1.00  0.00     0.027 A 
ATOM     17  C   UNL     1      89.352 119.283 121.616  1.00  0.00     0.003 A 
ENDROOT
BRANCH   6  18
ATOM     18  C   UNL     1      87.161 125.387 123.941  1.00  0.00     0.230 C 
ATOM     19  O   UNL     1      87.137 124.603 124.895  1.00  0.00    -0.274 OA
ATOM     20  N   UNL     1      87.014 126.770 124.140  1.00  0.00    -0.343 N 
BRANCH  20  21
ATOM     21  C   UNL     1      85.828 127.411 123.554  1.00  0.00     0.116 C 
ATOM     22  C   UNL     1      86.149 128.412 122.450  1.00  0.00     0.027 C 
ENDBRANCH  20  21
BRANCH  20  23
ATOM     23  C   UNL     1      87.430 127.242 125.465  1.00  0.00     0.116 C 
ATOM     24  C   UNL     1      88.467 128.353 125.424  1.00  0.00     0.027 C 
ENDBRANCH  20  23
ENDBRANCH   6  18
BRANCH   2  25
ATOM     25  C   UNL     1      92.542 119.745 118.187  1.00  0.00     0.230 C 
ATOM     26  O   UNL     1      91.923 119.041 117.394  1.00  0.00    -0.274 OA
BRANCH  25  27
ATOM     27  C   UNL     1      94.039 119.748 118.321  1.00  0.00     0.097 C 
ATOM     28  C   UNL     1      94.477 119.608 119.773  1.00  0.00     0.014 C 
ENDBRANCH  25  27
ENDBRANCH   2  25
TORSDOF 5
ENDMDL
MODEL 6
REMARK VINA RESULT:    -8.164      1.454      2.021
REMARK INTER + INTRA:         -11.339
REMARK INTER:                 -11.063
REMARK INTRA:                  -0.275
REMARK UNBOUND:                -0.788
REMARK SMILES CCC(=O)n1cc2c3c(cccc31)C1=C[C@@H](C(=O)N(CC)CC)CN(C)[C@@H]1C2
REMARK SMILES IDX 25 1 5 2 27 3 14 4 28 5 16 6 24 7 7 8 9 9 8 10 15 11 13 12
REMARK SMILES IDX 6 13 26 14 10 15 12 16 11 17 17 18 18 19 19 20 20 21 21 22
REMARK SMILES IDX 22 23 23 24 3 25 4 26 2 27 1 28
REMARK H PARENT
ROOT
ATOM      1  N   UNL     1      91.126 123.302 120.924  1.00  0.00    -0.298 NA
ATOM      2  N   UNL     1      94.435 122.535 115.941  1.00  0.00    -0.287 N 
ATOM      3  C   UNL     1      91.927 122.689 119.840  1.00  0.00     0.091 C 
ATOM      4  C   UNL     1      91.300 121.441 119.171  1.00  0.00    -0.026 C 
ATOM      5  C   UNL     1      92.329 123.774 118.779  1.00  0.00     0.061 C 
ATOM      6  C   UNL     1      89.156 121.741 120.403  1.00  0.00     0.116 C 
ATOM      7  C   UNL     1      89.674 123.171 120.696  1.00  0.00     0.102 C 
ATOM      8  C   UNL     1      93.098 123.122 117.672  1.00  0.00    -0.019 A 
ATOM      9  C   UNL     1      92.113 120.825 118.098  1.00  0.00    -0.011 A 
ATOM     10  C   UNL     1      92.944 121.742 117.424  1.00  0.00     0.011 A 
ATOM     11  C   UNL     1      90.058 121.006 119.451  1.00  0.00    -0.007 C 
ATOM     12  C   UNL     1      93.769 121.369 116.363  1.00  0.00     0.056 A 
ATOM     13  C   UNL     1      94.007 123.586 116.762  1.00  0.00     0.099 A 
ATOM     14  C   UNL     1      91.509 122.790 122.238  1.00  0.00     0.106 C 
ATOM     15  C   UNL     1      92.121 119.494 117.688  1.00  0.00     0.009 A 
ATOM     16  C   UNL     1      93.773 120.018 115.957  1.00  0.00     0.027 A 
ATOM     17  C   UNL     1      92.946 119.102 116.633  1.00  0.00     0.003 A 
ENDROOT
BRANCH   6  18
ATOM     18  C   UNL     1      88.681 121.021 121.693  1.00  0.00     0.230 C 
ATOM     19  O   UNL     1      87.694 121.427 122.314  1.00  0.00    -0.274 OA
ATOM     20  N   UNL     1      89.265 119.780 121.998  1.00  0.00    -0.343 N 
BRANCH  20  21
ATOM     21  C   UNL     1      90.641 119.793 122.513  1.00  0.00     0.116 C 
ATOM     22  C   UNL     1      91.643 119.070 121.619  1.00  0.00     0.027 C 
ENDBRANCH  20  21
BRANCH  20  23
ATOM     23  C   UNL     1      88.348 118.806 122.598  1.00  0.00     0.116 C 
ATOM     24  C   UNL     1      88.201 117.523 121.796  1.00  0.00     0.027 C 
ENDBRANCH  20  23
ENDBRANCH   6  18
BRANCH   2  25
ATOM     25  C   UNL     1      95.379 122.742 114.904  1.00  0.00     0.230 C 
ATOM     26  O   UNL     1      95.588 121.830 114.108  1.00  0.00    -0.274 OA
BRANCH  25  27
ATOM     27  C   UNL     1      96.065 124.078 114.855  1.00  0.00     0.097 C 
ATOM     28  C   UNL     1      95.830 124.785 113.527  1.00  0.00     0.014 C 
ENDBRANCH  25  27
ENDBRANCH   2  25
TORSDOF 5
ENDMDL
MODEL 7
REMARK VINA RESULT:    -8.141      3.599      8.287
REMARK INTER + INTRA:         -11.309
REMARK INTER:                 -10.493
REMARK INTRA:                  -0.817
REMARK UNBOUND:                -0.788
REMARK SMILES CCC(=O)n1cc2c3c(cccc31)C1=C[C@@H](C(=O)N(CC)CC)CN(C)[C@@H]1C2
REMARK SMILES IDX 25 1 5 2 27 3 14 4 28 5 16 6 24 7 7 8 9 9 8 10 15 11 13 12
REMARK SMILES IDX 6 13 26 14 10 15 12 16 11 17 17 18 18 19 19 20 20 21 21 22
REMARK SMILES IDX 22 23 23 24 3 25 4 26 2 27 1 28
REMARK H PARENT
ROOT
ATOM      1  N   UNL     1      90.825 119.372 121.101  1.00  0.00    -0.298 NA
ATOM      2  N   UNL     1      87.827 123.539 124.267  1.00  0.00    -0.287 N 
ATOM      3  C   UNL     1      90.457 120.633 121.786  1.00  0.00     0.091 C 
ATOM      4  C   UNL     1      90.622 121.922 120.946  1.00  0.00    -0.026 C 
ATOM      5  C   UNL     1      89.014 120.520 122.396  1.00  0.00     0.061 C 
ATOM      6  C   UNL     1      91.129 120.624 118.881  1.00  0.00     0.116 C 
ATOM      7  C   UNL     1      90.545 119.415 119.653  1.00  0.00     0.102 C 
ATOM      8  C   UNL     1      88.649 121.820 123.042  1.00  0.00    -0.019 A 
ATOM      9  C   UNL     1      90.266 123.180 121.642  1.00  0.00    -0.011 A 
ATOM     10  C   UNL     1      89.282 123.013 122.637  1.00  0.00     0.011 A 
ATOM     11  C   UNL     1      90.951 121.909 119.641  1.00  0.00    -0.007 C 
ATOM     12  C   UNL     1      88.788 124.078 123.390  1.00  0.00     0.056 A 
ATOM     13  C   UNL     1      87.768 122.159 124.032  1.00  0.00     0.099 A 
ATOM     14  C   UNL     1      92.212 118.995 121.367  1.00  0.00     0.106 C 
ATOM     15  C   UNL     1      90.764 124.459 121.407  1.00  0.00     0.009 A 
ATOM     16  C   UNL     1      89.301 125.368 123.147  1.00  0.00     0.027 A 
ATOM     17  C   UNL     1      90.286 125.534 122.155  1.00  0.00     0.003 A 
ENDROOT
BRANCH   6  18
ATOM     18  C   UNL     1      92.517 120.303 118.265  1.00  0.00     0.230 C 
ATOM     19  O   UNL     1      92.707 119.244 117.658  1.00  0.00    -0.274 OA
ATOM     20  N   UNL     1      93.466 121.338 118.227  1.00  0.00    -0.343 N 
BRANCH  20  21
ATOM     21  C   UNL     1      94.114 121.703 119.494  1.00  0.00     0.116 C 
ATOM     22  C   UNL     1      95.287 120.804 119.870  1.00  0.00     0.027 C 
ENDBRANCH  20  21
BRANCH  20  23
ATOM     23  C   UNL     1      94.314 121.341 117.029  1.00  0.00     0.116 C 
ATOM     24  C   UNL     1      93.755 122.169 115.883  1.00  0.00     0.027 C 
ENDBRANCH  20  23
ENDBRANCH   6  18
BRANCH   2  25
ATOM     25  C   UNL     1      87.010 124.160 125.244  1.00  0.00     0.230 C 
ATOM     26  O   UNL     1      87.244 123.944 126.431  1.00  0.00    -0.274 OA
BRANCH  25  27
ATOM     27  C   UNL     1      85.902 125.049 124.752  1.00  0.00     0.097 C 
ATOM     28  C   UNL     1      86.230 126.522 124.948  1.00  0.00     0.014 C 
ENDBRANCH  25  27
ENDBRANCH   2  25
TORSDOF 5
ENDMDL
MODEL 8
REMARK VINA RESULT:    -8.139      3.474      5.305
REMARK INTER + INTRA:         -11.306
REMARK INTER:                 -10.542
REMARK INTRA:                  -0.764
REMARK UNBOUND:                -0.788
REMARK SMILES CCC(=O)n1cc2c3c(cccc31)C1=C[C@@H](C(=O)N(CC)CC)CN(C)[C@@H]1C2
REMARK SMILES IDX 25 1 5 2 27 3 14 4 28 5 16 6 24 7 7 8 9 9 8 10 15 11 13 12
REMARK SMILES IDX 6 13 26 14 10 15 12 16 11 17 17 18 18 19 19 20 20 21 21 22
REMARK SMILES IDX 22 23 23 24 3 25 4 26 2 27 1 28
REMARK H PARENT
ROOT
ATOM      1  N   UNL     1      88.173 121.871 121.592  1.00  0.00    -0.298 NA
ATOM      2  N   UNL     1      92.235 120.285 117.427  1.00  0.00    -0.287 N 
ATOM      3  C   UNL     1      89.205 121.926 120.532  1.00  0.00     0.091 C 
ATOM      4  C   UNL     1      90.410 122.855 120.820  1.00  0.00    -0.026 C 
ATOM      5  C   UNL     1      89.671 120.476 120.149  1.00  0.00     0.061 C 
ATOM      6  C   UNL     1      89.652 123.267 123.158  1.00  0.00     0.116 C 
ATOM      7  C   UNL     1      88.743 122.032 122.944  1.00  0.00     0.102 C 
ATOM      8  C   UNL     1      90.745 120.561 119.110  1.00  0.00    -0.019 A 
ATOM      9  C   UNL     1      91.430 122.916 119.750  1.00  0.00    -0.011 A 
ATOM     10  C   UNL     1      91.516 121.735 118.986  1.00  0.00     0.011 A 
ATOM     11  C   UNL     1      90.589 123.476 122.000  1.00  0.00    -0.007 C 
ATOM     12  C   UNL     1      92.433 121.578 117.946  1.00  0.00     0.056 A 
ATOM     13  C   UNL     1      91.196 119.691 118.156  1.00  0.00     0.099 A 
ATOM     14  C   UNL     1      87.094 122.827 121.350  1.00  0.00     0.106 C 
ATOM     15  C   UNL     1      92.294 123.966 119.450  1.00  0.00     0.009 A 
ATOM     16  C   UNL     1      93.301 122.648 117.648  1.00  0.00     0.027 A 
ATOM     17  C   UNL     1      93.212 123.829 118.409  1.00  0.00     0.003 A 
ENDROOT
BRANCH   6  18
ATOM     18  C   UNL     1      88.860 124.482 123.710  1.00  0.00     0.230 C 
ATOM     19  O   UNL     1      88.203 124.384 124.751  1.00  0.00    -0.274 OA
ATOM     20  N   UNL     1      89.094 125.734 123.119  1.00  0.00    -0.343 N 
BRANCH  20  21
ATOM     21  C   UNL     1      88.520 125.967 121.787  1.00  0.00     0.116 C 
ATOM     22  C   UNL     1      88.488 127.436 121.376  1.00  0.00     0.027 C 
ENDBRANCH  20  21
BRANCH  20  23
ATOM     23  C   UNL     1      89.064 126.863 124.055  1.00  0.00     0.116 C 
ATOM     24  C   UNL     1      90.440 127.318 124.516  1.00  0.00     0.027 C 
ENDBRANCH  20  23
ENDBRANCH   6  18
BRANCH   2  25
ATOM     25  C   UNL     1      92.888 119.597 116.374  1.00  0.00     0.230 C 
ATOM     26  O   UNL     1      93.872 118.911 116.640  1.00  0.00    -0.274 OA
BRANCH  25  27
ATOM     27  C   UNL     1      92.324 119.760 114.990  1.00  0.00     0.097 C 
ATOM     28  C   UNL     1      93.000 120.896 114.235  1.00  0.00     0.014 C 
ENDBRANCH  25  27
ENDBRANCH   2  25
TORSDOF 5
ENDMDL
MODEL 9
REMARK VINA RESULT:    -8.135      2.169      3.491
REMARK INTER + INTRA:         -11.301
REMARK INTER:                 -11.008
REMARK INTRA:                  -0.293
REMARK UNBOUND:                -0.788
REMARK SMILES CCC(=O)n1cc2c3c(cccc31)C1=C[C@@H](C(=O)N(CC)CC)CN(C)[C@@H]1C2
REMARK SMILES IDX 25 1 5 2 27 3 14 4 28 5 16 6 24 7 7 8 9 9 8 10 15 11 13 12
REMARK SMILES IDX 6 13 26 14 10 15 12 16 11 17 17 18 18 19 19 20 20 21 21 22
REMARK SMILES IDX 22 23 23 24 3 25 4 26 2 27 1 28
REMARK H PARENT
ROOT
ATOM      1  N   UNL     1      91.427 119.476 119.362  1.00  0.00    -0.298 NA
ATOM      2  N   UNL     1      94.808 121.249 114.694  1.00  0.00    -0.287 N 
ATOM      3  C   UNL     1      92.056 120.301 118.306  1.00  0.00     0.091 C 
ATOM      4  C   UNL     1      92.662 121.644 118.779  1.00  0.00    -0.026 C 
ATOM      5  C   UNL     1      93.099 119.448 117.498  1.00  0.00     0.061 C 
ATOM      6  C   UNL     1      92.285 121.077 121.176  1.00  0.00     0.116 C 
ATOM      7  C   UNL     1      92.097 119.626 120.668  1.00  0.00     0.102 C 
ATOM      8  C   UNL     1      93.753 120.316 116.468  1.00  0.00    -0.019 A 
ATOM      9  C   UNL     1      93.276 122.471 117.715  1.00  0.00    -0.011 A 
ATOM     10  C   UNL     1      93.788 121.715 116.642  1.00  0.00     0.011 A 
ATOM     11  C   UNL     1      92.737 121.997 120.076  1.00  0.00    -0.007 C 
ATOM     12  C   UNL     1      94.431 122.301 115.550  1.00  0.00     0.056 A 
ATOM     13  C   UNL     1      94.377 120.051 115.280  1.00  0.00     0.099 A 
ATOM     14  C   UNL     1      89.991 119.728 119.465  1.00  0.00     0.106 C 
ATOM     15  C   UNL     1      93.416 123.855 117.680  1.00  0.00     0.009 A 
ATOM     16  C   UNL     1      94.564 123.704 115.523  1.00  0.00     0.027 A 
ATOM     17  C   UNL     1      94.050 124.458 116.594  1.00  0.00     0.003 A 
ENDROOT
BRANCH   6  18
ATOM     18  C   UNL     1      91.119 121.525 122.097  1.00  0.00     0.230 C 
ATOM     19  O   UNL     1      90.884 120.927 123.151  1.00  0.00    -0.274 OA
ATOM     20  N   UNL     1      90.496 122.751 121.808  1.00  0.00    -0.343 N 
BRANCH  20  21
ATOM     21  C   UNL     1      89.594 122.789 120.649  1.00  0.00     0.116 C 
ATOM     22  C   UNL     1      88.114 122.790 121.017  1.00  0.00     0.027 C 
ENDBRANCH  20  21
BRANCH  20  23
ATOM     23  C   UNL     1      90.083 123.517 122.988  1.00  0.00     0.116 C 
ATOM     24  C   UNL     1      90.580 124.954 122.994  1.00  0.00     0.027 C 
ENDBRANCH  20  23
ENDBRANCH   6  18
BRANCH   2  25
ATOM     25  C   UNL     1      95.493 121.263 113.453  1.00  0.00     0.230 C 
ATOM     26  O   UNL     1      95.570 120.218 112.812  1.00  0.00    -0.274 OA
BRANCH  25  27
ATOM     27  C   UNL     1      96.084 122.571 113.007  1.00  0.00     0.097 C 
ATOM     28  C   UNL     1      97.466 122.798 113.603  1.00  0.00     0.014 C 
ENDBRANCH  25  27
ENDBRANCH   2  25
TORSDOF 5
ENDMDL
MODEL 10
REMARK VINA RESULT:    -8.114      5.177      9.027
REMARK INTER + INTRA:         -11.275
REMARK INTER:                 -10.858
REMARK INTRA:                  -0.416
REMARK UNBOUND:                -0.788
REMARK SMILES CCC(=O)n1cc2c3c(cccc31)C1=C[C@@H](C(=O)N(CC)CC)CN(C)[C@@H]1C2
REMARK SMILES IDX 25 1 5 2 27 3 14 4 28 5 16 6 24 7 7 8 9 9 8 10 15 11 13 12
REMARK SMILES IDX 6 13 26 14 10 15 12 16 11 17 17 18 18 19 19 20 20 21 21 22
REMARK SMILES IDX 22 23 23 24 3 25 4 26 2 27 1 28
REMARK H PARENT
ROOT
ATOM      1  N   UNL     1      86.752 124.801 125.053  1.00  0.00    -0.298 NA
ATOM      2  N   UNL     1      88.561 119.871 122.088  1.00  0.00    -0.287 N 
ATOM      3  C   UNL     1      87.255 123.891 123.999  1.00  0.00     0.091 C 
ATOM      4  C   UNL     1      88.555 124.343 123.291  1.00  0.00    -0.026 C 
ATOM      5  C   UNL     1      87.379 122.427 124.556  1.00  0.00     0.061 C 
ATOM      6  C   UNL     1      88.873 126.236 124.880  1.00  0.00     0.116 C 
ATOM      7  C   UNL     1      87.842 125.495 125.766  1.00  0.00     0.102 C 
ATOM      8  C   UNL     1      87.932 121.538 123.486  1.00  0.00    -0.019 A 
ATOM      9  C   UNL     1      89.045 123.437 122.228  1.00  0.00    -0.011 A 
ATOM     10  C   UNL     1      88.693 122.088 122.434  1.00  0.00     0.011 A 
ATOM     11  C   UNL     1      89.264 125.419 123.680  1.00  0.00    -0.007 C 
ATOM     12  C   UNL     1      89.080 121.069 121.562  1.00  0.00     0.056 A 
ATOM     13  C   UNL     1      87.862 120.191 123.259  1.00  0.00     0.099 A 
ATOM     14  C   UNL     1      85.768 125.746 124.530  1.00  0.00     0.106 C 
ATOM     15  C   UNL     1      89.805 123.762 121.108  1.00  0.00     0.009 A 
ATOM     16  C   UNL     1      89.847 121.410 120.429  1.00  0.00     0.027 A 
ATOM     17  C   UNL     1      90.195 122.757 120.222  1.00  0.00     0.003 A 
ENDROOT
BRANCH   6  18
ATOM     18  C   UNL     1      88.500 127.729 124.681  1.00  0.00     0.230 C 
ATOM     19  O   UNL     1      88.322 128.468 125.654  1.00  0.00    -0.274 OA
ATOM     20  N   UNL     1      88.594 128.256 123.382  1.00  0.00    -0.343 N 
BRANCH  20  21
ATOM     21  C   UNL     1      87.550 127.869 122.423  1.00  0.00     0.116 C 
ATOM     22  C   UNL     1      88.087 127.480 121.050  1.00  0.00     0.027 C 
ENDBRANCH  20  21
BRANCH  20  23
ATOM     23  C   UNL     1      89.062 129.645 123.321  1.00  0.00     0.116 C 
ATOM     24  C   UNL     1      87.942 130.673 123.347  1.00  0.00     0.027 C 
ENDBRANCH  20  23
ENDBRANCH   6  18
BRANCH   2  25
ATOM     25  C   UNL     1      88.652 118.536 121.621  1.00  0.00     0.230 C 
ATOM     26  O   UNL     1      89.677 118.183 121.044  1.00  0.00    -0.274 OA
BRANCH  25  27
ATOM     27  C   UNL     1      87.471 117.639 121.866  1.00  0.00     0.097 C 
ATOM     28  C   UNL     1      87.640 116.817 123.136  1.00  0.00     0.014 C 
ENDBRANCH  25  27
ENDBRANCH   2  25
TORSDOF 5
ENDMDL
MODEL 11
REMARK VINA RESULT:    -8.056      4.668      8.329
REMARK INTER + INTRA:         -11.199
REMARK INTER:                 -10.533
REMARK INTRA:                  -0.666
REMARK UNBOUND:                -0.788
REMARK SMILES CCC(=O)n1cc2c3c(cccc31)C1=C[C@@H](C(=O)N(CC)CC)CN(C)[C@@H]1C2
REMARK SMILES IDX 25 1 5 2 27 3 14 4 28 5 16 6 24 7 7 8 9 9 8 10 15 11 13 12
REMARK SMILES IDX 6 13 26 14 10 15 12 16 11 17 17 18 18 19 19 20 20 21 21 22
REMARK SMILES IDX 22 23 23 24 3 25 4 26 2 27 1 28
REMARK H PARENT
ROOT
ATOM      1  N   UNL     1      89.405 120.847 122.831  1.00  0.00    -0.298 NA
ATOM      2  N   UNL     1      86.865 126.239 123.744  1.00  0.00    -0.287 N 
ATOM      3  C   UNL     1      89.158 122.306 122.854  1.00  0.00     0.091 C 
ATOM      4  C   UNL     1      89.354 123.039 121.505  1.00  0.00    -0.026 C 
ATOM      5  C   UNL     1      87.749 122.610 123.478  1.00  0.00     0.061 C 
ATOM      6  C   UNL     1      89.658 120.893 120.276  1.00  0.00     0.116 C 
ATOM      7  C   UNL     1      89.045 120.235 121.537  1.00  0.00     0.102 C 
ATOM      8  C   UNL     1      87.504 124.087 123.449  1.00  0.00    -0.019 A 
ATOM      9  C   UNL     1      89.119 124.500 121.539  1.00  0.00    -0.011 A 
ATOM     10  C   UNL     1      88.187 124.897 122.518  1.00  0.00     0.011 A 
ATOM     11  C   UNL     1      89.605 122.394 120.351  1.00  0.00    -0.007 C 
ATOM     12  C   UNL     1      87.805 126.227 122.696  1.00  0.00     0.056 A 
ATOM     13  C   UNL     1      86.706 124.919 124.184  1.00  0.00     0.099 A 
ATOM     14  C   UNL     1      90.779 120.523 123.211  1.00  0.00     0.106 C 
ATOM     15  C   UNL     1      89.682 125.477 120.722  1.00  0.00     0.009 A 
ATOM     16  C   UNL     1      88.383 127.209 121.866  1.00  0.00     0.027 A 
ATOM     17  C   UNL     1      89.317 126.813 120.891  1.00  0.00     0.003 A 
ENDROOT
BRANCH   6  18
ATOM     18  C   UNL     1      90.984 120.209 119.852  1.00  0.00     0.230 C 
ATOM     19  O   UNL     1      91.219 119.039 120.170  1.00  0.00    -0.274 OA
ATOM     20  N   UNL     1      91.792 120.879 118.918  1.00  0.00    -0.343 N 
BRANCH  20  21
ATOM     21  C   UNL     1      92.547 122.045 119.397  1.00  0.00     0.116 C 
ATOM     22  C   UNL     1      92.693 123.154 118.360  1.00  0.00     0.027 C 
ENDBRANCH  20  21
BRANCH  20  23
ATOM     23  C   UNL     1      92.474 120.000 117.962  1.00  0.00     0.116 C 
ATOM     24  C   UNL     1      91.665 119.710 116.708  1.00  0.00     0.027 C 
ENDBRANCH  20  23
ENDBRANCH   6  18
BRANCH   2  25
ATOM     25  C   UNL     1      86.148 127.309 124.335  1.00  0.00     0.230 C 
ATOM     26  O   UNL     1      84.921 127.301 124.272  1.00  0.00    -0.274 OA
BRANCH  25  27
ATOM     27  C   UNL     1      86.950 128.389 125.004  1.00  0.00     0.097 C 
ATOM     28  C   UNL     1      86.921 129.688 124.210  1.00  0.00     0.014 C 
ENDBRANCH  25  27
ENDBRANCH   2  25
TORSDOF 5
ENDMDL
MODEL 12
REMARK VINA RESULT:    -8.022      1.787      8.437
REMARK INTER + INTRA:         -11.156
REMARK INTER:                 -10.746
REMARK INTRA:                  -0.409
REMARK UNBOUND:                -0.788
REMARK SMILES CCC(=O)n1cc2c3c(cccc31)C1=C[C@@H](C(=O)N(CC)CC)CN(C)[C@@H]1C2
REMARK SMILES IDX 25 1 5 2 27 3 14 4 28 5 16 6 24 7 7 8 9 9 8 10 15 11 13 12
REMARK SMILES IDX 6 13 26 14 10 15 12 16 11 17 17 18 18 19 19 20 20 21 21 22
REMARK SMILES IDX 22 23 23 24 3 25 4 26 2 27 1 28
REMARK H PARENT
ROOT
ATOM      1  N   UNL     1      93.840 120.477 117.927  1.00  0.00    -0.298 NA
ATOM      2  N   UNL     1      89.149 120.567 121.715  1.00  0.00    -0.287 N 
ATOM      3  C   UNL     1      92.863 120.899 118.956  1.00  0.00     0.091 C 
ATOM      4  C   UNL     1      92.269 122.316 118.773  1.00  0.00    -0.026 C 
ATOM      5  C   UNL     1      91.738 119.815 119.116  1.00  0.00     0.061 C 
ATOM      6  C   UNL     1      93.341 122.578 116.539  1.00  0.00     0.116 C 
ATOM      7  C   UNL     1      93.538 121.043 116.598  1.00  0.00     0.102 C 
ATOM      8  C   UNL     1      90.740 120.285 120.128  1.00  0.00    -0.019 A 
ATOM      9  C   UNL     1      91.304 122.737 119.814  1.00  0.00    -0.011 A 
ATOM     10  C   UNL     1      90.604 121.662 120.398  1.00  0.00     0.011 A 
ATOM     11  C   UNL     1      92.511 123.077 117.689  1.00  0.00    -0.007 C 
ATOM     12  C   UNL     1      89.630 121.847 121.381  1.00  0.00     0.056 A 
ATOM     13  C   UNL     1      89.848 119.635 120.936  1.00  0.00     0.099 A 
ATOM     14  C   UNL     1      95.215 120.767 118.331  1.00  0.00     0.106 C 
ATOM     15  C   UNL     1      91.012 124.031 120.238  1.00  0.00     0.009 A 
ATOM     16  C   UNL     1      89.344 123.160 121.806  1.00  0.00     0.027 A 
ATOM     17  C   UNL     1      90.046 124.232 121.224  1.00  0.00     0.003 A 
ENDROOT
BRANCH   6  18
ATOM     18  C   UNL     1      94.658 123.319 116.187  1.00  0.00     0.230 C 
ATOM     19  O   UNL     1      95.498 122.794 115.450  1.00  0.00    -0.274 OA
ATOM     20  N   UNL     1      94.757 124.674 116.544  1.00  0.00    -0.343 N 
BRANCH  20  21
ATOM     21  C   UNL     1      94.966 124.981 117.966  1.00  0.00     0.116 C 
ATOM     22  C   UNL     1      95.754 126.263 118.212  1.00  0.00     0.027 C 
ENDBRANCH  20  21
BRANCH  20  23
ATOM     23  C   UNL     1      95.482 125.507 115.579  1.00  0.00     0.116 C 
ATOM     24  C   UNL     1      94.674 125.857 114.339  1.00  0.00     0.027 C 
ENDBRANCH  20  23
ENDBRANCH   6  18
BRANCH   2  25
ATOM     25  C   UNL     1      88.156 120.161 122.641  1.00  0.00     0.230 C 
ATOM     26  O   UNL     1      88.121 120.704 123.743  1.00  0.00    -0.274 OA
BRANCH  25  27
ATOM     27  C   UNL     1      87.207 119.081 122.204  1.00  0.00     0.097 C 
ATOM     28  C   UNL     1      87.418 117.792 122.987  1.00  0.00     0.014 C 
ENDBRANCH  25  27
ENDBRANCH   2  25
TORSDOF 5
ENDMDL
MODEL 13
REMARK VINA RESULT:    -7.907      3.823      8.735
REMARK INTER + INTRA:         -11.007
REMARK INTER:                 -10.587
REMARK INTRA:                  -0.420
REMARK UNBOUND:                -0.788
REMARK SMILES CCC(=O)n1cc2c3c(cccc31)C1=C[C@@H](C(=O)N(CC)CC)CN(C)[C@@H]1C2
REMARK SMILES IDX 25 1 5 2 27 3 14 4 28 5 16 6 24 7 7 8 9 9 8 10 15 11 13 12
REMARK SMILES IDX 6 13 26 14 10 15 12 16 11 17 17 18 18 19 19 20 20 21 21 22
REMARK SMILES IDX 22 23 23 24 3 25 4 26 2 27 1 28
REMARK H PARENT
ROOT
ATOM      1  N   UNL     1      90.481 120.068 120.955  1.00  0.00    -0.298 NA
ATOM      2  N   UNL     1      87.275 123.776 124.468  1.00  0.00    -0.287 N 
ATOM      3  C   UNL     1      90.094 121.175 121.859  1.00  0.00     0.091 C 
ATOM      4  C   UNL     1      90.557 122.587 121.424  1.00  0.00    -0.026 C 
ATOM      5  C   UNL     1      88.549 121.134 122.141  1.00  0.00     0.061 C 
ATOM      6  C   UNL     1      91.375 121.743 119.227  1.00  0.00     0.116 C 
ATOM      7  C   UNL     1      90.527 120.486 119.541  1.00  0.00     0.102 C 
ATOM      8  C   UNL     1      88.177 122.287 123.019  1.00  0.00    -0.019 A 
ATOM      9  C   UNL     1      90.179 123.686 122.340  1.00  0.00    -0.011 A 
ATOM     10  C   UNL     1      88.992 123.437 123.058  1.00  0.00     0.011 A 
ATOM     11  C   UNL     1      91.158 122.829 120.245  1.00  0.00    -0.007 C 
ATOM     12  C   UNL     1      88.449 124.359 123.954  1.00  0.00     0.056 A 
ATOM     13  C   UNL     1      87.139 122.511 123.881  1.00  0.00     0.099 A 
ATOM     14  C   UNL     1      91.736 119.443 121.369  1.00  0.00     0.106 C 
ATOM     15  C   UNL     1      90.834 124.899 122.538  1.00  0.00     0.009 A 
ATOM     16  C   UNL     1      89.121 125.583 124.149  1.00  0.00     0.027 A 
ATOM     17  C   UNL     1      90.308 125.829 123.435  1.00  0.00     0.003 A 
ENDROOT
BRANCH   6  18
ATOM     18  C   UNL     1      92.826 121.377 118.819  1.00  0.00     0.230 C 
ATOM     19  O   UNL     1      93.593 120.849 119.630  1.00  0.00    -0.274 OA
ATOM     20  N   UNL     1      93.159 121.456 117.457  1.00  0.00    -0.343 N 
BRANCH  20  21
ATOM     21  C   UNL     1      93.339 122.798 116.886  1.00  0.00     0.116 C 
ATOM     22  C   UNL     1      94.049 123.775 117.817  1.00  0.00     0.027 C 
ENDBRANCH  20  21
BRANCH  20  23
ATOM     23  C   UNL     1      94.083 120.415 116.994  1.00  0.00     0.116 C 
ATOM     24  C   UNL     1      93.392 119.153 116.503  1.00  0.00     0.027 C 
ENDBRANCH  20  23
ENDBRANCH   6  18
BRANCH   2  25
ATOM     25  C   UNL     1      86.328 124.265 125.403  1.00  0.00     0.230 C 
ATOM     26  O   UNL     1      85.911 123.503 126.271  1.00  0.00    -0.274 OA
BRANCH  25  27
ATOM     27  C   UNL     1      85.897 125.698 125.260  1.00  0.00     0.097 C 
ATOM     28  C   UNL     1      86.215 126.510 126.508  1.00  0.00     0.014 C 
ENDBRANCH  25  27
ENDBRANCH   2  25
TORSDOF 5
ENDMDL
MODEL 14
REMARK VINA RESULT:    -7.751      2.814      8.332
REMARK INTER + INTRA:         -10.805
REMARK INTER:                 -10.576
REMARK INTRA:                  -0.229
REMARK UNBOUND:                -0.788
REMARK SMILES CCC(=O)n1cc2c3c(cccc31)C1=C[C@@H](C(=O)N(CC)CC)CN(C)[C@@H]1C2
REMARK SMILES IDX 25 1 5 2 27 3 14 4 28 5 16 6 24 7 7 8 9 9 8 10 15 11 13 12
REMARK SMILES IDX 6 13 26 14 10 15 12 16 11 17 17 18 18 19 19 20 20 21 21 22
REMARK SMILES IDX 22 23 23 24 3 25 4 26 2 27 1 28
REMARK H PARENT
ROOT
ATOM      1  N   UNL     1      92.424 119.831 119.578  1.00  0.00    -0.298 NA
ATOM      2  N   UNL     1      88.288 122.512 123.053  1.00  0.00    -0.287 N 
ATOM      3  C   UNL     1      91.710 120.821 120.416  1.00  0.00     0.091 C 
ATOM      4  C   UNL     1      91.590 122.243 119.816  1.00  0.00    -0.026 C 
ATOM      5  C   UNL     1      90.309 120.257 120.850  1.00  0.00     0.061 C 
ATOM      6  C   UNL     1      92.531 121.502 117.631  1.00  0.00     0.116 C 
ATOM      7  C   UNL     1      92.228 120.069 118.134  1.00  0.00     0.102 C 
ATOM      8  C   UNL     1      89.589 121.292 121.657  1.00  0.00    -0.019 A 
ATOM      9  C   UNL     1      90.888 123.230 120.666  1.00  0.00    -0.011 A 
ATOM     10  C   UNL     1      89.922 122.654 121.516  1.00  0.00     0.011 A 
ATOM     11  C   UNL     1      91.988 122.546 118.567  1.00  0.00    -0.007 C 
ATOM     12  C   UNL     1      89.131 123.415 122.377  1.00  0.00     0.056 A 
ATOM     13  C   UNL     1      88.595 121.224 122.594  1.00  0.00     0.099 A 
ATOM     14  C   UNL     1      93.844 119.756 119.919  1.00  0.00     0.106 C 
ATOM     15  C   UNL     1      91.057 124.612 120.693  1.00  0.00     0.009 A 
ATOM     16  C   UNL     1      89.313 124.813 122.399  1.00  0.00     0.027 A 
ATOM     17  C   UNL     1      90.279 125.387 121.553  1.00  0.00     0.003 A 
ENDROOT
BRANCH   6  18
ATOM     18  C   UNL     1      93.988 121.640 117.116  1.00  0.00     0.230 C 
ATOM     19  O   UNL     1      94.893 120.950 117.596  1.00  0.00    -0.274 OA
ATOM     20  N   UNL     1      94.197 122.399 115.953  1.00  0.00    -0.343 N 
BRANCH  20  21
ATOM     21  C   UNL     1      94.104 123.860 116.077  1.00  0.00     0.116 C 
ATOM     22  C   UNL     1      93.587 124.555 114.822  1.00  0.00     0.027 C 
ENDBRANCH  20  21
BRANCH  20  23
ATOM     23  C   UNL     1      95.246 121.879 115.068  1.00  0.00     0.116 C 
ATOM     24  C   UNL     1      94.819 120.671 114.251  1.00  0.00     0.027 C 
ENDBRANCH  20  23
ENDBRANCH   6  18
BRANCH   2  25
ATOM     25  C   UNL     1      87.285 122.731 124.030  1.00  0.00     0.230 C 
ATOM     26  O   UNL     1      87.415 122.209 125.134  1.00  0.00    -0.274 OA
BRANCH  25  27
ATOM     27  C   UNL     1      86.119 123.595 123.638  1.00  0.00     0.097 C 
ATOM     28  C   UNL     1      86.104 124.907 124.410  1.00  0.00     0.014 C 
ENDBRANCH  25  27
ENDBRANCH   2  25
TORSDOF 5
ENDMDL
MODEL 15
REMARK VINA RESULT:    -7.736      4.985      7.748
REMARK INTER + INTRA:         -10.786
REMARK INTER:                  -9.828
REMARK INTRA:                  -0.958
REMARK UNBOUND:                -0.788
REMARK SMILES CCC(=O)n1cc2c3c(cccc31)C1=C[C@@H](C(=O)N(CC)CC)CN(C)[C@@H]1C2
REMARK SMILES IDX 25 1 5 2 27 3 14 4 28 5 16 6 24 7 7 8 9 9 8 10 15 11 13 12
REMARK SMILES IDX 6 13 26 14 10 15 12 16 11 17 17 18 18 19 19 20 20 21 21 22
REMARK SMILES IDX 22 23 23 24 3 25 4 26 2 27 1 28
REMARK H PARENT
ROOT
ATOM      1  N   UNL     1      86.748 123.356 124.592  1.00  0.00    -0.298 NA
ATOM      2  N   UNL     1      90.642 120.548 120.942  1.00  0.00    -0.287 N 
ATOM      3  C   UNL     1      87.660 123.049 123.467  1.00  0.00     0.091 C 
ATOM      4  C   UNL     1      88.711 124.138 123.141  1.00  0.00    -0.026 C 
ATOM      5  C   UNL     1      88.329 121.643 123.676  1.00  0.00     0.061 C 
ATOM      6  C   UNL     1      88.101 125.463 125.162  1.00  0.00     0.116 C 
ATOM      7  C   UNL     1      87.399 124.167 125.639  1.00  0.00     0.102 C 
ATOM      8  C   UNL     1      89.279 121.376 122.550  1.00  0.00    -0.019 A 
ATOM      9  C   UNL     1      89.609 123.830 122.006  1.00  0.00    -0.011 A 
ATOM     10  C   UNL     1      89.827 122.450 121.819  1.00  0.00     0.011 A 
ATOM     11  C   UNL     1      88.885 125.236 123.898  1.00  0.00    -0.007 C 
ATOM     12  C   UNL     1      90.663 121.950 120.820  1.00  0.00     0.056 A 
ATOM     13  C   UNL     1      89.785 120.229 122.004  1.00  0.00     0.099 A 
ATOM     14  C   UNL     1      85.507 123.975 124.131  1.00  0.00     0.106 C 
ATOM     15  C   UNL     1      90.254 124.726 121.157  1.00  0.00     0.009 A 
ATOM     16  C   UNL     1      91.308 122.865 119.964  1.00  0.00     0.027 A 
ATOM     17  C   UNL     1      91.088 124.243 120.149  1.00  0.00     0.003 A 
ENDROOT
BRANCH   6  18
ATOM     18  C   UNL     1      87.166 126.697 125.254  1.00  0.00     0.230 C 
ATOM     19  O   UNL     1      86.573 126.960 126.305  1.00  0.00    -0.274 OA
ATOM     20  N   UNL     1      87.195 127.616 124.192  1.00  0.00    -0.343 N 
BRANCH  20  21
ATOM     21  C   UNL     1      86.540 127.215 122.939  1.00  0.00     0.116 C 
ATOM     22  C   UNL     1      87.269 127.683 121.684  1.00  0.00     0.027 C 
ENDBRANCH  20  21
BRANCH  20  23
ATOM     23  C   UNL     1      87.042 129.017 124.595  1.00  0.00     0.116 C 
ATOM     24  C   UNL     1      88.359 129.760 124.755  1.00  0.00     0.027 C 
ENDBRANCH  20  23
ENDBRANCH   6  18
BRANCH   2  25
ATOM     25  C   UNL     1      91.307 119.541 120.199  1.00  0.00     0.230 C 
ATOM     26  O   UNL     1      90.635 118.763 119.528  1.00  0.00    -0.274 OA
BRANCH  25  27
ATOM     27  C   UNL     1      92.807 119.496 120.291  1.00  0.00     0.097 C 
ATOM     28  C   UNL     1      93.465 119.923 118.986  1.00  0.00     0.014 C 
ENDBRANCH  25  27
ENDBRANCH   2  25
TORSDOF 5
ENDMDL
MODEL 16
REMARK VINA RESULT:    -7.673      4.847      7.163
REMARK INTER + INTRA:         -10.704
REMARK INTER:                 -10.007
REMARK INTRA:                  -0.697
REMARK UNBOUND:                -0.788
REMARK SMILES CCC(=O)n1cc2c3c(cccc31)C1=C[C@@H](C(=O)N(CC)CC)CN(C)[C@@H]1C2
REMARK SMILES IDX 25 1 5 2 27 3 14 4 28 5 16 6 24 7 7 8 9 9 8 10 15 11 13 12
REMARK SMILES IDX 6 13 26 14 10 15 12 16 11 17 17 18 18 19 19 20 20 21 21 22
REMARK SMILES IDX 22 23 23 24 3 25 4 26 2 27 1 28
REMARK H PARENT
ROOT
ATOM      1  N   UNL     1      89.812 125.926 122.481  1.00  0.00    -0.298 NA
ATOM      2  N   UNL     1      91.008 120.730 119.663  1.00  0.00    -0.287 N 
ATOM      3  C   UNL     1      90.013 124.487 122.196  1.00  0.00     0.091 C 
ATOM      4  C   UNL     1      88.870 123.549 122.653  1.00  0.00    -0.026 C 
ATOM      5  C   UNL     1      90.364 124.277 120.679  1.00  0.00     0.061 C 
ATOM      6  C   UNL     1      87.410 125.472 123.266  1.00  0.00     0.116 C 
ATOM      7  C   UNL     1      88.391 126.319 122.419  1.00  0.00     0.102 C 
ATOM      8  C   UNL     1      90.517 122.813 120.407  1.00  0.00    -0.019 A 
ATOM      9  C   UNL     1      89.086 122.110 122.378  1.00  0.00    -0.011 A 
ATOM     10  C   UNL     1      89.894 121.869 121.249  1.00  0.00     0.011 A 
ATOM     11  C   UNL     1      87.709 124.002 123.159  1.00  0.00    -0.007 C 
ATOM     12  C   UNL     1      90.196 120.581 120.803  1.00  0.00     0.056 A 
ATOM     13  C   UNL     1      91.189 122.103 119.450  1.00  0.00     0.099 A 
ATOM     14  C   UNL     1      90.419 126.318 123.752  1.00  0.00     0.106 C 
ATOM     15  C   UNL     1      88.572 121.019 123.074  1.00  0.00     0.009 A 
ATOM     16  C   UNL     1      89.674 119.483 121.517  1.00  0.00     0.027 A 
ATOM     17  C   UNL     1      88.870 119.725 122.646  1.00  0.00     0.003 A 
ENDROOT
BRANCH   6  18
ATOM     18  C   UNL     1      87.174 126.089 124.670  1.00  0.00     0.230 C 
ATOM     19  O   UNL     1      87.081 125.367 125.668  1.00  0.00    -0.274 OA
ATOM     20  N   UNL     1      87.296 127.483 124.797  1.00  0.00    -0.343 N 
BRANCH  20  21
ATOM     21  C   UNL     1      86.206 128.305 124.254  1.00  0.00     0.116 C 
ATOM     22  C   UNL     1      86.652 129.294 123.182  1.00  0.00     0.027 C 
ENDBRANCH  20  21
BRANCH  20  23
ATOM     23  C   UNL     1      87.890 127.930 126.061  1.00  0.00     0.116 C 
ATOM     24  C   UNL     1      88.996 128.959 125.892  1.00  0.00     0.027 C 
ENDBRANCH  20  23
ENDBRANCH   6  18
BRANCH   2  25
ATOM     25  C   UNL     1      91.595 119.764 118.808  1.00  0.00     0.230 C 
ATOM     26  O   UNL     1      92.740 119.387 119.045  1.00  0.00    -0.274 OA
BRANCH  25  27
ATOM     27  C   UNL     1      90.765 119.266 117.659  1.00  0.00     0.097 C 
ATOM     28  C   UNL     1      91.514 119.361 116.338  1.00  0.00     0.014 C 
ENDBRANCH  25  27
ENDBRANCH   2  25
TORSDOF 5
ENDMDL
MODEL 17
REMARK VINA RESULT:    -7.496      6.624      8.908
REMARK INTER + INTRA:         -10.475
REMARK INTER:                  -9.392
REMARK INTRA:                  -1.083
REMARK UNBOUND:                -0.788
REMARK SMILES CCC(=O)n1cc2c3c(cccc31)C1=C[C@@H](C(=O)N(CC)CC)CN(C)[C@@H]1C2
REMARK SMILES IDX 25 1 5 2 27 3 14 4 28 5 16 6 24 7 7 8 9 9 8 10 15 11 13 12
REMARK SMILES IDX 6 13 26 14 10 15 12 16 11 17 17 18 18 19 19 20 20 21 21 22
REMARK SMILES IDX 22 23 23 24 3 25 4 26 2 27 1 28
REMARK H PARENT
ROOT
ATOM      1  N   UNL     1      90.749 124.503 122.418  1.00  0.00    -0.298 NA
ATOM      2  N   UNL     1      88.996 129.894 124.476  1.00  0.00    -0.287 N 
ATOM      3  C   UNL     1      90.071 125.814 122.550  1.00  0.00     0.091 C 
ATOM      4  C   UNL     1      88.533 125.791 122.378  1.00  0.00    -0.026 C 
ATOM      5  C   UNL     1      90.493 126.512 123.892  1.00  0.00     0.061 C 
ATOM      6  C   UNL     1      88.483 123.301 122.313  1.00  0.00     0.116 C 
ATOM      7  C   UNL     1      89.913 123.386 122.900  1.00  0.00     0.102 C 
ATOM      8  C   UNL     1      89.762 127.811 124.024  1.00  0.00    -0.019 A 
ATOM      9  C   UNL     1      87.865 127.107 122.496  1.00  0.00    -0.011 A 
ATOM     10  C   UNL     1      88.547 128.010 123.336  1.00  0.00     0.011 A 
ATOM     11  C   UNL     1      87.828 124.653 122.246  1.00  0.00    -0.007 C 
ATOM     12  C   UNL     1      88.069 129.294 123.603  1.00  0.00     0.056 A 
ATOM     13  C   UNL     1      90.019 128.966 124.711  1.00  0.00     0.099 A 
ATOM     14  C   UNL     1      91.218 124.270 121.054  1.00  0.00     0.106 C 
ATOM     15  C   UNL     1      86.671 127.516 121.909  1.00  0.00     0.009 A 
ATOM     16  C   UNL     1      86.861 129.700 123.001  1.00  0.00     0.027 A 
ATOM     17  C   UNL     1      86.183 128.799 122.159  1.00  0.00     0.003 A 
ENDROOT
BRANCH   6  18
ATOM     18  C   UNL     1      88.420 122.374 121.071  1.00  0.00     0.230 C 
ATOM     19  O   UNL     1      88.092 122.821 119.968  1.00  0.00    -0.274 OA
ATOM     20  N   UNL     1      88.958 121.082 121.195  1.00  0.00    -0.343 N 
BRANCH  20  21
ATOM     21  C   UNL     1      88.180 120.101 121.965  1.00  0.00     0.116 C 
ATOM     22  C   UNL     1      88.833 119.690 123.280  1.00  0.00     0.027 C 
ENDBRANCH  20  21
BRANCH  20  23
ATOM     23  C   UNL     1      89.635 120.586 119.993  1.00  0.00     0.116 C 
ATOM     24  C   UNL     1      91.149 120.727 120.036  1.00  0.00     0.027 C 
ENDBRANCH  20  23
ENDBRANCH   6  18
BRANCH   2  25
ATOM     25  C   UNL     1      89.011 131.179 125.073  1.00  0.00     0.230 C 
ATOM     26  O   UNL     1      88.913 131.262 126.295  1.00  0.00    -0.274 OA
BRANCH  25  27
ATOM     27  C   UNL     1      89.146 132.363 124.156  1.00  0.00     0.097 C 
ATOM     28  C   UNL     1      90.377 132.251 123.267  1.00  0.00     0.014 C 
ENDBRANCH  25  27
ENDBRANCH   2  25
TORSDOF 5
ENDMDL
MODEL 18
REMARK VINA RESULT:    -7.393      4.327      8.549
REMARK INTER + INTRA:         -10.343
REMARK INTER:                  -9.700
REMARK INTRA:                  -0.643
REMARK UNBOUND:                -0.788
REMARK SMILES CCC(=O)n1cc2c3c(cccc31)C1=C[C@@H](C(=O)N(CC)CC)CN(C)[C@@H]1C2
REMARK SMILES IDX 25 1 5 2 27 3 14 4 28 5 16 6 24 7 7 8 9 9 8 10 15 11 13 12
REMARK SMILES IDX 6 13 26 14 10 15 12 16 11 17 17 18 18 19 19 20 20 21 21 22
REMARK SMILES IDX 22 23 23 24 3 25 4 26 2 27 1 28
REMARK H PARENT
ROOT
ATOM      1  N   UNL     1      91.465 123.330 120.501  1.00  0.00    -0.298 NA
ATOM      2  N   UNL     1      87.976 125.693 124.815  1.00  0.00    -0.287 N 
ATOM      3  C   UNL     1      90.346 123.567 121.442  1.00  0.00     0.091 C 
ATOM      4  C   UNL     1      89.890 122.336 122.262  1.00  0.00    -0.026 C 
ATOM      5  C   UNL     1      90.665 124.795 122.368  1.00  0.00     0.061 C 
ATOM      6  C   UNL     1      91.796 120.961 121.435  1.00  0.00     0.116 C 
ATOM      7  C   UNL     1      92.413 122.313 120.998  1.00  0.00     0.102 C 
ATOM      8  C   UNL     1      89.541 124.985 123.338  1.00  0.00    -0.019 A 
ATOM      9  C   UNL     1      88.762 122.578 123.189  1.00  0.00    -0.011 A 
ATOM     10  C   UNL     1      88.697 123.903 123.663  1.00  0.00     0.011 A 
ATOM     11  C   UNL     1      90.537 121.157 122.232  1.00  0.00    -0.007 C 
ATOM     12  C   UNL     1      87.724 124.331 124.567  1.00  0.00     0.056 A 
ATOM     13  C   UNL     1      89.088 126.064 124.048  1.00  0.00     0.099 A 
ATOM     14  C   UNL     1      90.986 123.004 119.159  1.00  0.00     0.106 C 
ATOM     15  C   UNL     1      87.814 121.663 123.641  1.00  0.00     0.009 A 
ATOM     16  C   UNL     1      86.768 123.397 125.016  1.00  0.00     0.027 A 
ATOM     17  C   UNL     1      86.831 122.075 124.540  1.00  0.00     0.003 A 
ENDROOT
BRANCH   6  18
ATOM     18  C   UNL     1      91.802 119.922 120.283  1.00  0.00     0.230 C 
ATOM     19  O   UNL     1      90.830 119.183 120.097  1.00  0.00    -0.274 OA
ATOM     20  N   UNL     1      92.836 120.006 119.336  1.00  0.00    -0.343 N 
BRANCH  20  21
ATOM     21  C   UNL     1      94.169 119.548 119.754  1.00  0.00     0.116 C 
ATOM     22  C   UNL     1      95.199 120.667 119.868  1.00  0.00     0.027 C 
ENDBRANCH  20  21
BRANCH  20  23
ATOM     23  C   UNL     1      92.432 119.687 117.963  1.00  0.00     0.116 C 
ATOM     24  C   UNL     1      93.597 119.407 117.027  1.00  0.00     0.027 C 
ENDBRANCH  20  23
ENDBRANCH   6  18
BRANCH   2  25
ATOM     25  C   UNL     1      87.310 126.623 125.652  1.00  0.00     0.230 C 
ATOM     26  O   UNL     1      87.961 127.215 126.510  1.00  0.00    -0.274 OA
BRANCH  25  27
ATOM     27  C   UNL     1      85.837 126.820 125.427  1.00  0.00     0.097 C 
ATOM     28  C   UNL     1      85.527 127.158 123.976  1.00  0.00     0.014 C 
ENDBRANCH  25  27
ENDBRANCH   2  25
TORSDOF 5
ENDMDL
MODEL 19
REMARK VINA RESULT:    -7.165      1.451      8.449
REMARK INTER + INTRA:         -10.047
REMARK INTER:                  -9.782
REMARK INTRA:                  -0.265
REMARK UNBOUND:                -0.788
REMARK SMILES CCC(=O)n1cc2c3c(cccc31)C1=C[C@@H](C(=O)N(CC)CC)CN(C)[C@@H]1C2
REMARK SMILES IDX 25 1 5 2 27 3 14 4 28 5 16 6 24 7 7 8 9 9 8 10 15 11 13 12
REMARK SMILES IDX 6 13 26 14 10 15 12 16 11 17 17 18 18 19 19 20 20 21 21 22
REMARK SMILES IDX 22 23 23 24 3 25 4 26 2 27 1 28
REMARK H PARENT
ROOT
ATOM      1  N   UNL     1      93.782 121.148 115.402  1.00  0.00    -0.298 NA
ATOM      2  N   UNL     1      90.317 119.546 120.070  1.00  0.00    -0.287 N 
ATOM      3  C   UNL     1      93.198 121.046 116.758  1.00  0.00     0.091 C 
ATOM      4  C   UNL     1      92.853 122.393 117.440  1.00  0.00    -0.026 C 
ATOM      5  C   UNL     1      91.968 120.070 116.750  1.00  0.00     0.061 C 
ATOM      6  C   UNL     1      93.348 123.678 115.364  1.00  0.00     0.116 C 
ATOM      7  C   UNL     1      93.262 122.307 114.650  1.00  0.00     0.102 C 
ATOM      8  C   UNL     1      91.368 120.020 118.120  1.00  0.00    -0.019 A 
ATOM      9  C   UNL     1      92.282 122.284 118.802  1.00  0.00    -0.011 A 
ATOM     10  C   UNL     1      91.566 121.089 119.017  1.00  0.00     0.011 A 
ATOM     11  C   UNL     1      92.948 123.578 116.810  1.00  0.00    -0.007 C 
ATOM     12  C   UNL     1      90.928 120.804 120.225  1.00  0.00     0.056 A 
ATOM     13  C   UNL     1      90.607 119.092 118.777  1.00  0.00     0.099 A 
ATOM     14  C   UNL     1      95.243 121.147 115.439  1.00  0.00     0.106 C 
ATOM     15  C   UNL     1      92.357 123.211 119.838  1.00  0.00     0.009 A 
ATOM     16  C   UNL     1      91.012 121.748 121.269  1.00  0.00     0.027 A 
ATOM     17  C   UNL     1      91.730 122.939 121.054  1.00  0.00     0.003 A 
ENDROOT
BRANCH   6  18
ATOM     18  C   UNL     1      94.646 124.444 114.996  1.00  0.00     0.230 C 
ATOM     19  O   UNL     1      95.268 124.169 113.965  1.00  0.00    -0.274 OA
ATOM     20  N   UNL     1      94.958 125.592 115.743  1.00  0.00    -0.343 N 
BRANCH  20  21
ATOM     21  C   UNL     1      95.467 125.388 117.106  1.00  0.00     0.116 C 
ATOM     22  C   UNL     1      96.697 126.226 117.438  1.00  0.00     0.027 C 
ENDBRANCH  20  21
BRANCH  20  23
ATOM     23  C   UNL     1      95.572 126.675 114.967  1.00  0.00     0.116 C 
ATOM     24  C   UNL     1      94.619 127.814 114.641  1.00  0.00     0.027 C 
ENDBRANCH  20  23
ENDBRANCH   6  18
BRANCH   2  25
ATOM     25  C   UNL     1      89.536 118.776 120.968  1.00  0.00     0.230 C 
ATOM     26  O   UNL     1      89.724 117.563 121.021  1.00  0.00    -0.274 OA
BRANCH  25  27
ATOM     27  C   UNL     1      88.519 119.508 121.798  1.00  0.00     0.097 C 
ATOM     28  C   UNL     1      87.622 118.549 122.567  1.00  0.00     0.014 C 
ENDBRANCH  25  27
ENDBRANCH   2  25
TORSDOF 5
ENDMDL
MODEL 20
REMARK VINA RESULT:    -7.059      7.261     10.238
REMARK INTER + INTRA:          -9.911
REMARK INTER:                  -8.976
REMARK INTRA:                  -0.935
REMARK UNBOUND:                -0.788
REMARK SMILES CCC(=O)n1cc2c3c(cccc31)C1=C[C@@H](C(=O)N(CC)CC)CN(C)[C@@H]1C2
REMARK SMILES IDX 25 1 5 2 27 3 14 4 28 5 16 6 24 7 7 8 9 9 8 10 15 11 13 12
REMARK SMILES IDX 6 13 26 14 10 15 12 16 11 17 17 18 18 19 19 20 20 21 21 22
REMARK SMILES IDX 22 23 23 24 3 25 4 26 2 27 1 28
REMARK H PARENT
ROOT
ATOM      1  N   UNL     1      89.316 128.278 123.291  1.00  0.00    -0.298 NA
ATOM      2  N   UNL     1      88.827 122.422 121.931  1.00  0.00    -0.287 N 
ATOM      3  C   UNL     1      89.085 126.818 123.390  1.00  0.00     0.091 C 
ATOM      4  C   UNL     1      87.753 126.396 124.055  1.00  0.00    -0.026 C 
ATOM      5  C   UNL     1      89.272 126.140 121.986  1.00  0.00     0.061 C 
ATOM      6  C   UNL     1      86.934 128.748 124.126  1.00  0.00     0.116 C 
ATOM      7  C   UNL     1      88.063 129.034 123.105  1.00  0.00     0.102 C 
ATOM      8  C   UNL     1      88.989 124.675 122.104  1.00  0.00    -0.019 A 
ATOM      9  C   UNL     1      87.536 124.936 124.165  1.00  0.00    -0.011 A 
ATOM     10  C   UNL     1      88.176 124.195 123.150  1.00  0.00     0.011 A 
ATOM     11  C   UNL     1      86.799 127.277 124.407  1.00  0.00    -0.007 C 
ATOM     12  C   UNL     1      88.075 122.806 123.058  1.00  0.00     0.056 A 
ATOM     13  C   UNL     1      89.376 123.585 121.373  1.00  0.00     0.099 A 
ATOM     14  C   UNL     1      90.083 128.785 124.427  1.00  0.00     0.106 C 
ATOM     15  C   UNL     1      86.778 124.251 125.111  1.00  0.00     0.009 A 
ATOM     16  C   UNL     1      87.307 122.122 124.022  1.00  0.00     0.027 A 
ATOM     17  C   UNL     1      86.672 122.862 125.037  1.00  0.00     0.003 A 
ENDROOT
BRANCH   6  18
ATOM     18  C   UNL     1      86.966 129.740 125.319  1.00  0.00     0.230 C 
ATOM     19  O   UNL     1      87.091 129.329 126.476  1.00  0.00    -0.274 OA
ATOM     20  N   UNL     1      87.073 131.109 125.023  1.00  0.00    -0.343 N 
BRANCH  20  21
ATOM     21  C   UNL     1      85.876 131.780 124.499  1.00  0.00     0.116 C 
ATOM     22  C   UNL     1      84.708 131.814 125.479  1.00  0.00     0.027 C 
ENDBRANCH  20  21
BRANCH  20  23
ATOM     23  C   UNL     1      87.894 131.873 125.968  1.00  0.00     0.116 C 
ATOM     24  C   UNL     1      89.244 132.297 125.409  1.00  0.00     0.027 C 
ENDBRANCH  20  23
ENDBRANCH   6  18
BRANCH   2  25
ATOM     25  C   UNL     1      89.066 121.145 121.366  1.00  0.00     0.230 C 
ATOM     26  O   UNL     1      88.933 121.004 120.153  1.00  0.00    -0.274 OA
BRANCH  25  27
ATOM     27  C   UNL     1      89.468 120.041 122.303  1.00  0.00     0.097 C 
ATOM     28  C   UNL     1      88.400 118.960 122.394  1.00  0.00     0.014 C 
ENDBRANCH  25  27
ENDBRANCH   2  25
TORSDOF 5
ENDMDL
