MODEL 1
REMARK VINA RESULT:    -7.780      0.000      0.000
REMARK INTER + INTRA:         -10.775
REMARK INTER:                 -10.054
REMARK INTRA:                  -0.722
REMARK UNBOUND:                -0.722
REMARK SMILES CCC(=O)n1cc2c3c(cccc31)C1=C[C@@H](C(=O)N(CC)CC)CN(C)[C@@H]1C2
REMARK SMILES IDX 25 1 5 2 27 3 14 4 28 5 16 6 24 7 7 8 9 9 8 10 15 11 13 12
REMARK SMILES IDX 6 13 26 14 10 15 12 16 11 17 17 18 18 19 19 20 20 21 21 22
REMARK SMILES IDX 22 23 23 24 3 25 4 26 2 27 1 28
REMARK H PARENT
ROOT
ATOM      1  N   UNL     1     100.270 120.227  79.324  1.00  0.00    -0.298 NA
ATOM      2  N   UNL     1      98.829 120.597  85.169  1.00  0.00    -0.287 N 
ATOM      3  C   UNL     1      99.969 119.874  80.731  1.00  0.00     0.091 C 
ATOM      4  C   UNL     1     101.001 118.952  81.424  1.00  0.00    -0.026 C 
ATOM      5  C   UNL     1      99.697 121.173  81.572  1.00  0.00     0.061 C 
ATOM      6  C   UNL     1     102.574 119.107  79.497  1.00  0.00     0.116 C 
ATOM      7  C   UNL     1     101.719 120.325  79.065  1.00  0.00     0.102 C 
ATOM      8  C   UNL     1      99.441 120.793  82.997  1.00  0.00    -0.019 A 
ATOM      9  C   UNL     1     100.687 118.592  82.824  1.00  0.00    -0.011 A 
ATOM     10  C   UNL     1      99.932 119.571  83.501  1.00  0.00     0.011 A 
ATOM     11  C   UNL     1     102.163 118.590  80.848  1.00  0.00    -0.007 C 
ATOM     12  C   UNL     1      99.555 119.437  84.837  1.00  0.00     0.056 A 
ATOM     13  C   UNL     1      98.775 121.403  84.024  1.00  0.00     0.099 A 
ATOM     14  C   UNL     1      99.619 119.315  78.385  1.00  0.00     0.106 C 
ATOM     15  C   UNL     1     101.065 117.446  83.520  1.00  0.00     0.009 A 
ATOM     16  C   UNL     1      99.940 118.272  85.531  1.00  0.00     0.027 A 
ATOM     17  C   UNL     1     100.690 117.293  84.854  1.00  0.00     0.003 A 
ENDROOT
BRANCH   6  18
ATOM     18  C   UNL     1     102.772 118.097  78.335  1.00  0.00     0.230 C 
ATOM     19  O   UNL     1     102.833 118.488  77.166  1.00  0.00    -0.274 OA
ATOM     20  N   UNL     1     103.100 116.774  78.673  1.00  0.00    -0.343 N 
BRANCH  20  21
ATOM     21  C   UNL     1     102.026 115.933  79.220  1.00  0.00     0.116 C 
ATOM     22  C   UNL     1     100.839 115.759  78.279  1.00  0.00     0.027 C 
ENDBRANCH  20  21
BRANCH  20  23
ATOM     23  C   UNL     1     104.039 116.126  77.751  1.00  0.00     0.116 C 
ATOM     24  C   UNL     1     105.501 116.402  78.066  1.00  0.00     0.027 C 
ENDBRANCH  20  23
ENDBRANCH   6  18
BRANCH   2  25
ATOM     25  C   UNL     1      98.219 120.995  86.384  1.00  0.00     0.230 C 
ATOM     26  O   UNL     1      97.004 121.174  86.402  1.00  0.00    -0.274 OA
BRANCH  25  27
ATOM     27  C   UNL     1      99.115 121.174  87.578  1.00  0.00     0.097 C 
ATOM     28  C   UNL     1      98.861 120.111  88.638  1.00  0.00     0.014 C 
ENDBRANCH  25  27
ENDBRANCH   2  25
TORSDOF 5
ENDMDL
MODEL 2
REMARK VINA RESULT:    -6.980      2.990      4.463
REMARK INTER + INTRA:          -9.742
REMARK INTER:                  -9.429
REMARK INTRA:                  -0.313
REMARK UNBOUND:                -0.722
REMARK SMILES CCC(=O)n1cc2c3c(cccc31)C1=C[C@@H](C(=O)N(CC)CC)CN(C)[C@@H]1C2
REMARK SMILES IDX 25 1 5 2 27 3 14 4 28 5 16 6 24 7 7 8 9 9 8 10 15 11 13 12
REMARK SMILES IDX 6 13 26 14 10 15 12 16 11 17 17 18 18 19 19 20 20 21 21 22
REMARK SMILES IDX 22 23 23 24 3 25 4 26 2 27 1 28
REMARK H PARENT
ROOT
ATOM      1  N   UNL     1     101.349 118.575  77.246  1.00  0.00    -0.298 NA
ATOM      2  N   UNL     1      98.251 122.961  79.991  1.00  0.00    -0.287 N 
ATOM      3  C   UNL     1     100.583 119.348  78.249  1.00  0.00     0.091 C 
ATOM      4  C   UNL     1     101.206 119.408  79.665  1.00  0.00    -0.026 C 
ATOM      5  C   UNL     1     100.258 120.783  77.699  1.00  0.00     0.061 C 
ATOM      6  C   UNL     1     103.299 118.299  78.894  1.00  0.00     0.116 C 
ATOM      7  C   UNL     1     102.806 118.652  77.468  1.00  0.00     0.102 C 
ATOM      8  C   UNL     1      99.524 121.559  78.747  1.00  0.00    -0.019 A 
ATOM      9  C   UNL     1     100.426 120.171  80.667  1.00  0.00    -0.011 A 
ATOM     10  C   UNL     1      99.652 121.206  80.106  1.00  0.00     0.011 A 
ATOM     11  C   UNL     1     102.422 118.909  79.952  1.00  0.00    -0.007 C 
ATOM     12  C   UNL     1      98.866 122.060  80.882  1.00  0.00     0.056 A 
ATOM     13  C   UNL     1      98.670 122.627  78.696  1.00  0.00     0.099 A 
ATOM     14  C   UNL     1     100.893 117.188  77.166  1.00  0.00     0.106 C 
ATOM     15  C   UNL     1     100.401 119.994  82.048  1.00  0.00     0.009 A 
ATOM     16  C   UNL     1      98.845 121.870  82.279  1.00  0.00     0.027 A 
ATOM     17  C   UNL     1      99.616 120.834  82.837  1.00  0.00     0.003 A 
ENDROOT
BRANCH   6  18
ATOM     18  C   UNL     1     103.695 116.804  79.017  1.00  0.00     0.230 C 
ATOM     19  O   UNL     1     103.127 116.068  79.830  1.00  0.00    -0.274 OA
ATOM     20  N   UNL     1     104.546 116.273  78.034  1.00  0.00    -0.343 N 
BRANCH  20  21
ATOM     21  C   UNL     1     105.965 116.653  78.097  1.00  0.00     0.116 C 
ATOM     22  C   UNL     1     106.607 116.416  79.459  1.00  0.00     0.027 C 
ENDBRANCH  20  21
BRANCH  20  23
ATOM     23  C   UNL     1     104.253 114.886  77.659  1.00  0.00     0.116 C 
ATOM     24  C   UNL     1     104.773 113.857  78.650  1.00  0.00     0.027 C 
ENDBRANCH  20  23
ENDBRANCH   6  18
BRANCH   2  25
ATOM     25  C   UNL     1      97.362 124.038  80.227  1.00  0.00     0.230 C 
ATOM     26  O   UNL     1      96.240 123.995  79.729  1.00  0.00    -0.274 OA
BRANCH  25  27
ATOM     27  C   UNL     1      97.863 125.171  81.079  1.00  0.00     0.097 C 
ATOM     28  C   UNL     1      96.722 126.030  81.605  1.00  0.00     0.014 C 
ENDBRANCH  25  27
ENDBRANCH   2  25
TORSDOF 5
ENDMDL
MODEL 3
REMARK VINA RESULT:    -5.756      2.280      8.185
REMARK INTER + INTRA:          -8.161
REMARK INTER:                  -7.434
REMARK INTRA:                  -0.727
REMARK UNBOUND:                -0.722
REMARK SMILES CCC(=O)n1cc2c3c(cccc31)C1=C[C@@H](C(=O)N(CC)CC)CN(C)[C@@H]1C2
REMARK SMILES IDX 25 1 5 2 27 3 14 4 28 5 16 6 24 7 7 8 9 9 8 10 15 11 13 12
REMARK SMILES IDX 6 13 26 14 10 15 12 16 11 17 17 18 18 19 19 20 20 21 21 22
REMARK SMILES IDX 22 23 23 24 3 25 4 26 2 27 1 28
REMARK H PARENT
ROOT
ATOM      1  N   UNL     1      98.497 121.550  86.592  1.00  0.00    -0.298 NA
ATOM      2  N   UNL     1     100.186 119.688  81.110  1.00  0.00    -0.287 N 
ATOM      3  C   UNL     1      99.189 120.841  85.491  1.00  0.00     0.091 C 
ATOM      4  C   UNL     1      99.268 119.301  85.633  1.00  0.00    -0.026 C 
ATOM      5  C   UNL     1      98.583 121.264  84.105  1.00  0.00     0.061 C 
ATOM      6  C   UNL     1      97.770 119.314  87.624  1.00  0.00     0.116 C 
ATOM      7  C   UNL     1      97.403 120.751  87.177  1.00  0.00     0.102 C 
ATOM      8  C   UNL     1      99.267 120.501  83.014  1.00  0.00    -0.019 A 
ATOM      9  C   UNL     1      99.974 118.601  84.537  1.00  0.00    -0.011 A 
ATOM     10  C   UNL     1      99.896 119.271  83.299  1.00  0.00     0.011 A 
ATOM     11  C   UNL     1      98.645 118.624  86.615  1.00  0.00    -0.007 C 
ATOM     12  C   UNL     1     100.471 118.765  82.134  1.00  0.00     0.056 A 
ATOM     13  C   UNL     1      99.454 120.738  81.680  1.00  0.00     0.099 A 
ATOM     14  C   UNL     1      99.434 122.005  87.618  1.00  0.00     0.106 C 
ATOM     15  C   UNL     1     100.655 117.388  84.594  1.00  0.00     0.009 A 
ATOM     16  C   UNL     1     101.162 117.538  82.203  1.00  0.00     0.027 A 
ATOM     17  C   UNL     1     101.242 116.871  83.439  1.00  0.00     0.003 A 
ENDROOT
BRANCH   6  18
ATOM     18  C   UNL     1      98.165 119.258  89.124  1.00  0.00     0.230 C 
ATOM     19  O   UNL     1      97.351 119.562  90.001  1.00  0.00    -0.274 OA
ATOM     20  N   UNL     1      99.385 118.642  89.452  1.00  0.00    -0.343 N 
BRANCH  20  21
ATOM     21  C   UNL     1     100.615 119.389  89.157  1.00  0.00     0.116 C 
ATOM     22  C   UNL     1     101.659 118.582  88.392  1.00  0.00     0.027 C 
ENDBRANCH  20  21
BRANCH  20  23
ATOM     23  C   UNL     1      99.363 117.878  90.703  1.00  0.00     0.116 C 
ATOM     24  C   UNL     1     100.059 118.574  91.862  1.00  0.00     0.027 C 
ENDBRANCH  20  23
ENDBRANCH   6  18
BRANCH   2  25
ATOM     25  C   UNL     1     100.517 119.679  79.732  1.00  0.00     0.230 C 
ATOM     26  O   UNL     1      99.756 119.119  78.947  1.00  0.00    -0.274 OA
BRANCH  25  27
ATOM     27  C   UNL     1     101.793 120.362  79.326  1.00  0.00     0.097 C 
ATOM     28  C   UNL     1     103.019 119.627  79.851  1.00  0.00     0.014 C 
ENDBRANCH  25  27
ENDBRANCH   2  25
TORSDOF 5
ENDMDL
MODEL 4
REMARK VINA RESULT:    -5.737      1.014      1.106
REMARK INTER + INTRA:          -8.135
REMARK INTER:                  -7.493
REMARK INTRA:                  -0.642
REMARK UNBOUND:                -0.722
REMARK SMILES CCC(=O)n1cc2c3c(cccc31)C1=C[C@@H](C(=O)N(CC)CC)CN(C)[C@@H]1C2
REMARK SMILES IDX 25 1 5 2 27 3 14 4 28 5 16 6 24 7 7 8 9 9 8 10 15 11 13 12
REMARK SMILES IDX 6 13 26 14 10 15 12 16 11 17 17 18 18 19 19 20 20 21 21 22
REMARK SMILES IDX 22 23 23 24 3 25 4 26 2 27 1 28
REMARK H PARENT
ROOT
ATOM      1  N   UNL     1      99.749 120.941  79.789  1.00  0.00    -0.298 NA
ATOM      2  N   UNL     1      98.861 120.095  85.693  1.00  0.00    -0.287 N 
ATOM      3  C   UNL     1      99.592 120.306  81.117  1.00  0.00     0.091 C 
ATOM      4  C   UNL     1     100.705 119.309  81.518  1.00  0.00    -0.026 C 
ATOM      5  C   UNL     1      99.371 121.402  82.221  1.00  0.00     0.061 C 
ATOM      6  C   UNL     1     102.084 119.904  79.530  1.00  0.00     0.116 C 
ATOM      7  C   UNL     1     101.165 121.147  79.427  1.00  0.00     0.102 C 
ATOM      8  C   UNL     1      99.260 120.739  83.559  1.00  0.00    -0.019 A 
ATOM      9  C   UNL     1     100.533 118.667  82.841  1.00  0.00    -0.011 A 
ATOM     10  C   UNL     1      99.824 119.463  83.763  1.00  0.00     0.011 A 
ATOM     11  C   UNL     1     101.815 119.116  80.781  1.00  0.00    -0.007 C 
ATOM     12  C   UNL     1      99.578 119.053  85.074  1.00  0.00     0.056 A 
ATOM     13  C   UNL     1      98.679 121.107  84.741  1.00  0.00     0.099 A 
ATOM     14  C   UNL     1      99.034 120.205  78.747  1.00  0.00     0.106 C 
ATOM     15  C   UNL     1     101.002 117.424  83.257  1.00  0.00     0.009 A 
ATOM     16  C   UNL     1     100.053 117.791  85.485  1.00  0.00     0.027 A 
ATOM     17  C   UNL     1     100.759 116.996  84.563  1.00  0.00     0.003 A 
ENDROOT
BRANCH   6  18
ATOM     18  C   UNL     1     102.194 119.151  78.178  1.00  0.00     0.230 C 
ATOM     19  O   UNL     1     102.636 119.721  77.175  1.00  0.00    -0.274 OA
ATOM     20  N   UNL     1     101.992 117.762  78.189  1.00  0.00    -0.343 N 
BRANCH  20  21
ATOM     21  C   UNL     1     100.610 117.285  78.340  1.00  0.00     0.116 C 
ATOM     22  C   UNL     1     100.494 115.775  78.525  1.00  0.00     0.027 C 
ENDBRANCH  20  21
BRANCH  20  23
ATOM     23  C   UNL     1     102.847 117.014  77.261  1.00  0.00     0.116 C 
ATOM     24  C   UNL     1     104.080 116.408  77.913  1.00  0.00     0.027 C 
ENDBRANCH  20  23
ENDBRANCH   6  18
BRANCH   2  25
ATOM     25  C   UNL     1      98.359 120.220  87.013  1.00  0.00     0.230 C 
ATOM     26  O   UNL     1      97.663 119.316  87.467  1.00  0.00    -0.274 OA
BRANCH  25  27
ATOM     27  C   UNL     1      98.718 121.468  87.769  1.00  0.00     0.097 C 
ATOM     28  C   UNL     1      97.581 121.929  88.670  1.00  0.00     0.014 C 
ENDBRANCH  25  27
ENDBRANCH   2  25
TORSDOF 5
ENDMDL
MODEL 5
REMARK VINA RESULT:    -5.182      2.982      7.906
REMARK INTER + INTRA:          -7.419
REMARK INTER:                  -8.039
REMARK INTRA:                   0.620
REMARK UNBOUND:                -0.722
REMARK SMILES CCC(=O)n1cc2c3c(cccc31)C1=C[C@@H](C(=O)N(CC)CC)CN(C)[C@@H]1C2
REMARK SMILES IDX 25 1 5 2 27 3 14 4 28 5 16 6 24 7 7 8 9 9 8 10 15 11 13 12
REMARK SMILES IDX 6 13 26 14 10 15 12 16 11 17 17 18 18 19 19 20 20 21 21 22
REMARK SMILES IDX 22 23 23 24 3 25 4 26 2 27 1 28
REMARK H PARENT
ROOT
ATOM      1  N   UNL     1      98.517 120.996  86.335  1.00  0.00    -0.298 NA
ATOM      2  N   UNL     1      99.261 121.729  80.395  1.00  0.00    -0.287 N 
ATOM      3  C   UNL     1      99.094 120.987  84.971  1.00  0.00     0.091 C 
ATOM      4  C   UNL     1      99.683 119.634  84.504  1.00  0.00    -0.026 C 
ATOM      5  C   UNL     1      98.057 121.555  83.937  1.00  0.00     0.061 C 
ATOM      6  C   UNL     1      98.810 118.452  86.516  1.00  0.00     0.116 C 
ATOM      7  C   UNL     1      97.912 119.701  86.700  1.00  0.00     0.102 C 
ATOM      8  C   UNL     1      98.647 121.492  82.562  1.00  0.00    -0.019 A 
ATOM      9  C   UNL     1     100.271 119.636  83.146  1.00  0.00    -0.011 A 
ATOM     10  C   UNL     1      99.678 120.574  82.277  1.00  0.00     0.011 A 
ATOM     11  C   UNL     1      99.571 118.501  85.221  1.00  0.00    -0.007 C 
ATOM     12  C   UNL     1     100.069 120.716  80.946  1.00  0.00     0.056 A 
ATOM     13  C   UNL     1      98.406 122.185  81.408  1.00  0.00     0.099 A 
ATOM     14  C   UNL     1      99.492 121.431  87.334  1.00  0.00     0.106 C 
ATOM     15  C   UNL     1     101.288 118.823  82.652  1.00  0.00     0.009 A 
ATOM     16  C   UNL     1     101.102 119.891  80.456  1.00  0.00     0.027 A 
ATOM     17  C   UNL     1     101.696 118.957  81.325  1.00  0.00     0.003 A 
ENDROOT
BRANCH   6  18
ATOM     18  C   UNL     1      99.568 118.087  87.820  1.00  0.00     0.230 C 
ATOM     19  O   UNL     1     100.434 117.207  87.818  1.00  0.00    -0.274 OA
ATOM     20  N   UNL     1      99.399 118.932  88.929  1.00  0.00    -0.343 N 
BRANCH  20  21
ATOM     21  C   UNL     1      98.122 118.848  89.650  1.00  0.00     0.116 C 
ATOM     22  C   UNL     1      97.693 120.158  90.302  1.00  0.00     0.027 C 
ENDBRANCH  20  21
BRANCH  20  23
ATOM     23  C   UNL     1     100.604 119.114  89.745  1.00  0.00     0.116 C 
ATOM     24  C   UNL     1     101.840 119.490  88.942  1.00  0.00     0.027 C 
ENDBRANCH  20  23
ENDBRANCH   6  18
BRANCH   2  25
ATOM     25  C   UNL     1      99.219 122.277  79.089  1.00  0.00     0.230 C 
ATOM     26  O   UNL     1      99.041 123.486  78.962  1.00  0.00    -0.274 OA
BRANCH  25  27
ATOM     27  C   UNL     1      99.397 121.326  77.938  1.00  0.00     0.097 C 
ATOM     28  C   UNL     1     100.701 121.577  77.194  1.00  0.00     0.014 C 
ENDBRANCH  25  27
ENDBRANCH   2  25
TORSDOF 5
ENDMDL
MODEL 6
REMARK VINA RESULT:    -5.143      3.158      5.170
REMARK INTER + INTRA:          -7.368
REMARK INTER:                  -7.012
REMARK INTRA:                  -0.356
REMARK UNBOUND:                -0.722
REMARK SMILES CCC(=O)n1cc2c3c(cccc31)C1=C[C@@H](C(=O)N(CC)CC)CN(C)[C@@H]1C2
REMARK SMILES IDX 25 1 5 2 27 3 14 4 28 5 16 6 24 7 7 8 9 9 8 10 15 11 13 12
REMARK SMILES IDX 6 13 26 14 10 15 12 16 11 17 17 18 18 19 19 20 20 21 21 22
REMARK SMILES IDX 22 23 23 24 3 25 4 26 2 27 1 28
REMARK H PARENT
ROOT
ATOM      1  N   UNL     1     101.217 118.403  81.661  1.00  0.00    -0.298 NA
ATOM      2  N   UNL     1      98.188 123.488  80.505  1.00  0.00    -0.287 N 
ATOM      3  C   UNL     1     100.763 119.666  81.036  1.00  0.00     0.091 C 
ATOM      4  C   UNL     1     100.503 119.602  79.511  1.00  0.00    -0.026 C 
ATOM      5  C   UNL     1      99.523 120.242  81.810  1.00  0.00     0.061 C 
ATOM      6  C   UNL     1     100.817 117.130  79.467  1.00  0.00     0.116 C 
ATOM      7  C   UNL     1     100.645 117.212  81.004  1.00  0.00     0.102 C 
ATOM      8  C   UNL     1      99.056 121.492  81.133  1.00  0.00    -0.019 A 
ATOM      9  C   UNL     1     100.063 120.872  78.891  1.00  0.00    -0.011 A 
ATOM     10  C   UNL     1      99.353 121.712  79.772  1.00  0.00     0.011 A 
ATOM     11  C   UNL     1     100.555 118.456  78.808  1.00  0.00    -0.007 C 
ATOM     12  C   UNL     1      98.829 122.943  79.377  1.00  0.00     0.056 A 
ATOM     13  C   UNL     1      98.347 122.581  81.561  1.00  0.00     0.099 A 
ATOM     14  C   UNL     1     102.675 118.326  81.731  1.00  0.00     0.106 C 
ATOM     15  C   UNL     1     100.248 121.292  77.576  1.00  0.00     0.009 A 
ATOM     16  C   UNL     1      99.025 123.360  78.044  1.00  0.00     0.027 A 
ATOM     17  C   UNL     1      99.737 122.523  77.166  1.00  0.00     0.003 A 
ENDROOT
BRANCH   6  18
ATOM     18  C   UNL     1     102.085 116.331  79.067  1.00  0.00     0.230 C 
ATOM     19  O   UNL     1     102.238 115.164  79.443  1.00  0.00    -0.274 OA
ATOM     20  N   UNL     1     102.929 116.893  78.095  1.00  0.00    -0.343 N 
BRANCH  20  21
ATOM     21  C   UNL     1     103.773 118.022  78.509  1.00  0.00     0.116 C 
ATOM     22  C   UNL     1     103.771 119.187  77.524  1.00  0.00     0.027 C 
ENDBRANCH  20  21
BRANCH  20  23
ATOM     23  C   UNL     1     103.534 115.920  77.179  1.00  0.00     0.116 C 
ATOM     24  C   UNL     1     105.014 115.677  77.429  1.00  0.00     0.027 C 
ENDBRANCH  20  23
ENDBRANCH   6  18
BRANCH   2  25
ATOM     25  C   UNL     1      97.485 124.707  80.675  1.00  0.00     0.230 C 
ATOM     26  O   UNL     1      97.882 125.503  81.522  1.00  0.00    -0.274 OA
BRANCH  25  27
ATOM     27  C   UNL     1      96.288 124.939  79.797  1.00  0.00     0.097 C 
ATOM     28  C   UNL     1      95.829 123.656  79.117  1.00  0.00     0.014 C 
ENDBRANCH  25  27
ENDBRANCH   2  25
TORSDOF 5
ENDMDL
MODEL 7
REMARK VINA RESULT:    -5.115      2.258      3.606
REMARK INTER + INTRA:          -7.332
REMARK INTER:                  -6.698
REMARK INTRA:                  -0.634
REMARK UNBOUND:                -0.722
REMARK SMILES CCC(=O)n1cc2c3c(cccc31)C1=C[C@@H](C(=O)N(CC)CC)CN(C)[C@@H]1C2
REMARK SMILES IDX 25 1 5 2 27 3 14 4 28 5 16 6 24 7 7 8 9 9 8 10 15 11 13 12
REMARK SMILES IDX 6 13 26 14 10 15 12 16 11 17 17 18 18 19 19 20 20 21 21 22
REMARK SMILES IDX 22 23 23 24 3 25 4 26 2 27 1 28
REMARK H PARENT
ROOT
ATOM      1  N   UNL     1     101.816 118.390  81.615  1.00  0.00    -0.298 NA
ATOM      2  N   UNL     1      99.709 118.419  87.265  1.00  0.00    -0.287 N 
ATOM      3  C   UNL     1     101.238 118.830  82.905  1.00  0.00     0.091 C 
ATOM      4  C   UNL     1      99.929 119.651  82.806  1.00  0.00    -0.026 C 
ATOM      5  C   UNL     1     101.081 117.606  83.877  1.00  0.00     0.061 C 
ATOM      6  C   UNL     1      99.745 119.238  80.356  1.00  0.00     0.116 C 
ATOM      7  C   UNL     1     100.781 118.113  80.599  1.00  0.00     0.102 C 
ATOM      8  C   UNL     1     100.454 118.068  85.155  1.00  0.00    -0.019 A 
ATOM      9  C   UNL     1      99.366 120.100  84.099  1.00  0.00    -0.011 A 
ATOM     10  C   UNL     1      99.674 119.243  85.174  1.00  0.00     0.011 A 
ATOM     11  C   UNL     1      99.277 119.851  81.646  1.00  0.00    -0.007 C 
ATOM     12  C   UNL     1      99.215 119.472  86.472  1.00  0.00     0.056 A 
ATOM     13  C   UNL     1     100.464 117.581  86.433  1.00  0.00     0.099 A 
ATOM     14  C   UNL     1     102.814 119.334  81.117  1.00  0.00     0.106 C 
ATOM     15  C   UNL     1      98.575 121.219  84.346  1.00  0.00     0.009 A 
ATOM     16  C   UNL     1      98.419 120.610  86.712  1.00  0.00     0.027 A 
ATOM     17  C   UNL     1      98.114 121.467  85.639  1.00  0.00     0.003 A 
ENDROOT
BRANCH   6  18
ATOM     18  C   UNL     1     100.166 120.171  79.190  1.00  0.00     0.230 C 
ATOM     19  O   UNL     1     100.096 121.398  79.310  1.00  0.00    -0.274 OA
ATOM     20  N   UNL     1     100.831 119.589  78.098  1.00  0.00    -0.343 N 
BRANCH  20  21
ATOM     21  C   UNL     1     100.021 118.792  77.166  1.00  0.00     0.116 C 
ATOM     22  C   UNL     1     100.323 117.298  77.207  1.00  0.00     0.027 C 
ENDBRANCH  20  21
BRANCH  20  23
ATOM     23  C   UNL     1     101.880 120.426  77.508  1.00  0.00     0.116 C 
ATOM     24  C   UNL     1     103.193 119.695  77.274  1.00  0.00     0.027 C 
ENDBRANCH  20  23
ENDBRANCH   6  18
BRANCH   2  25
ATOM     25  C   UNL     1      99.550 118.143  88.646  1.00  0.00     0.230 C 
ATOM     26  O   UNL     1      99.610 116.976  89.024  1.00  0.00    -0.274 OA
BRANCH  25  27
ATOM     27  C   UNL     1      99.313 119.313  89.559  1.00  0.00     0.097 C 
ATOM     28  C   UNL     1      98.044 119.139  90.383  1.00  0.00     0.014 C 
ENDBRANCH  25  27
ENDBRANCH   2  25
TORSDOF 5
ENDMDL
MODEL 8
REMARK VINA RESULT:    -5.110      2.374      7.940
REMARK INTER + INTRA:          -7.326
REMARK INTER:                  -7.114
REMARK INTRA:                  -0.212
REMARK UNBOUND:                -0.722
REMARK SMILES CCC(=O)n1cc2c3c(cccc31)C1=C[C@@H](C(=O)N(CC)CC)CN(C)[C@@H]1C2
REMARK SMILES IDX 25 1 5 2 27 3 14 4 28 5 16 6 24 7 7 8 9 9 8 10 15 11 13 12
REMARK SMILES IDX 6 13 26 14 10 15 12 16 11 17 17 18 18 19 19 20 20 21 21 22
REMARK SMILES IDX 22 23 23 24 3 25 4 26 2 27 1 28
REMARK H PARENT
ROOT
ATOM      1  N   UNL     1     100.618 116.745  84.217  1.00  0.00    -0.298 NA
ATOM      2  N   UNL     1     100.927 120.262  79.328  1.00  0.00    -0.287 N 
ATOM      3  C   UNL     1     100.306 117.757  83.182  1.00  0.00     0.091 C 
ATOM      4  C   UNL     1      99.925 119.160  83.714  1.00  0.00    -0.026 C 
ATOM      5  C   UNL     1     101.466 117.833  82.126  1.00  0.00     0.061 C 
ATOM      6  C   UNL     1     100.505 118.534  86.055  1.00  0.00     0.116 C 
ATOM      7  C   UNL     1     101.249 117.337  85.412  1.00  0.00     0.102 C 
ATOM      8  C   UNL     1     101.148 118.893  81.119  1.00  0.00    -0.019 A 
ATOM      9  C   UNL     1      99.600 120.163  82.674  1.00  0.00    -0.011 A 
ATOM     10  C   UNL     1     100.265 119.941  81.451  1.00  0.00     0.011 A 
ATOM     11  C   UNL     1      99.994 119.493  85.015  1.00  0.00    -0.007 C 
ATOM     12  C   UNL     1     100.116 120.787  80.352  1.00  0.00     0.056 A 
ATOM     13  C   UNL     1     101.540 119.104  79.826  1.00  0.00     0.099 A 
ATOM     14  C   UNL     1      99.444 115.950  84.571  1.00  0.00     0.106 C 
ATOM     15  C   UNL     1      98.761 121.268  82.784  1.00  0.00     0.009 A 
ATOM     16  C   UNL     1      99.261 121.902  80.472  1.00  0.00     0.027 A 
ATOM     17  C   UNL     1      98.595 122.121  81.692  1.00  0.00     0.003 A 
ENDROOT
BRANCH   6  18
ATOM     18  C   UNL     1      99.552 118.082  87.192  1.00  0.00     0.230 C 
ATOM     19  O   UNL     1      99.576 116.920  87.609  1.00  0.00    -0.274 OA
ATOM     20  N   UNL     1      98.833 119.078  87.873  1.00  0.00    -0.343 N 
BRANCH  20  21
ATOM     21  C   UNL     1      97.699 119.690  87.167  1.00  0.00     0.116 C 
ATOM     22  C   UNL     1      96.379 119.602  87.926  1.00  0.00     0.027 C 
ENDBRANCH  20  21
BRANCH  20  23
ATOM     23  C   UNL     1      98.658 118.829  89.307  1.00  0.00     0.116 C 
ATOM     24  C   UNL     1      99.929 119.005  90.123  1.00  0.00     0.027 C 
ENDBRANCH  20  23
ENDBRANCH   6  18
BRANCH   2  25
ATOM     25  C   UNL     1     101.164 120.716  78.006  1.00  0.00     0.230 C 
ATOM     26  O   UNL     1     102.317 120.721  77.584  1.00  0.00    -0.274 OA
BRANCH  25  27
ATOM     27  C   UNL     1      99.972 121.165  77.209  1.00  0.00     0.097 C 
ATOM     28  C   UNL     1      98.886 120.099  77.167  1.00  0.00     0.014 C 
ENDBRANCH  25  27
ENDBRANCH   2  25
TORSDOF 5
ENDMDL
MODEL 9
REMARK VINA RESULT:    -4.937      2.954      7.910
REMARK INTER + INTRA:          -7.102
REMARK INTER:                  -7.859
REMARK INTRA:                   0.757
REMARK UNBOUND:                -0.722
REMARK SMILES CCC(=O)n1cc2c3c(cccc31)C1=C[C@@H](C(=O)N(CC)CC)CN(C)[C@@H]1C2
REMARK SMILES IDX 25 1 5 2 27 3 14 4 28 5 16 6 24 7 7 8 9 9 8 10 15 11 13 12
REMARK SMILES IDX 6 13 26 14 10 15 12 16 11 17 17 18 18 19 19 20 20 21 21 22
REMARK SMILES IDX 22 23 23 24 3 25 4 26 2 27 1 28
REMARK H PARENT
ROOT
ATOM      1  N   UNL     1      98.530 120.868  86.659  1.00  0.00    -0.298 NA
ATOM      2  N   UNL     1      99.123 121.702  80.716  1.00  0.00    -0.287 N 
ATOM      3  C   UNL     1      99.069 120.876  85.280  1.00  0.00     0.091 C 
ATOM      4  C   UNL     1      99.625 119.523  84.772  1.00  0.00    -0.026 C 
ATOM      5  C   UNL     1      98.013 121.478  84.286  1.00  0.00     0.061 C 
ATOM      6  C   UNL     1      98.790 118.317  86.786  1.00  0.00     0.116 C 
ATOM      7  C   UNL     1      97.915 119.574  87.016  1.00  0.00     0.102 C 
ATOM      8  C   UNL     1      98.564 121.433  82.895  1.00  0.00    -0.019 A 
ATOM      9  C   UNL     1     100.177 119.543  83.399  1.00  0.00    -0.011 A 
ATOM     10  C   UNL     1      99.574 120.506  82.565  1.00  0.00     0.011 A 
ATOM     11  C   UNL     1      99.517 118.379  85.471  1.00  0.00    -0.007 C 
ATOM     12  C   UNL     1      99.931 120.668  81.225  1.00  0.00     0.056 A 
ATOM     13  C   UNL     1      98.303 122.151  81.760  1.00  0.00     0.099 A 
ATOM     14  C   UNL     1      99.537 121.270  87.639  1.00  0.00     0.106 C 
ATOM     15  C   UNL     1     101.168 118.725  82.863  1.00  0.00     0.009 A 
ATOM     16  C   UNL     1     100.938 119.837  80.693  1.00  0.00     0.027 A 
ATOM     17  C   UNL     1     101.542 118.879  81.527  1.00  0.00     0.003 A 
ENDROOT
BRANCH   6  18
ATOM     18  C   UNL     1      99.578 117.916  88.061  1.00  0.00     0.230 C 
ATOM     19  O   UNL     1     100.432 117.026  88.019  1.00  0.00    -0.274 OA
ATOM     20  N   UNL     1      99.449 118.742  89.191  1.00  0.00    -0.343 N 
BRANCH  20  21
ATOM     21  C   UNL     1      98.190 118.659  89.944  1.00  0.00     0.116 C 
ATOM     22  C   UNL     1      97.785 119.967  90.615  1.00  0.00     0.027 C 
ENDBRANCH  20  21
BRANCH  20  23
ATOM     23  C   UNL     1     100.678 118.892  89.977  1.00  0.00     0.116 C 
ATOM     24  C   UNL     1     101.887 119.310  89.156  1.00  0.00     0.027 C 
ENDBRANCH  20  23
ENDBRANCH   6  18
BRANCH   2  25
ATOM     25  C   UNL     1      99.054 122.275  79.422  1.00  0.00     0.230 C 
ATOM     26  O   UNL     1      99.603 121.691  78.490  1.00  0.00    -0.274 OA
BRANCH  25  27
ATOM     27  C   UNL     1      98.308 123.571  79.281  1.00  0.00     0.097 C 
ATOM     28  C   UNL     1      96.883 123.353  78.792  1.00  0.00     0.014 C 
ENDBRANCH  25  27
ENDBRANCH   2  25
TORSDOF 5
ENDMDL
MODEL 10
REMARK VINA RESULT:    -4.904      2.220      8.048
REMARK INTER + INTRA:          -7.059
REMARK INTER:                  -7.132
REMARK INTRA:                   0.073
REMARK UNBOUND:                -0.722
REMARK SMILES CCC(=O)n1cc2c3c(cccc31)C1=C[C@@H](C(=O)N(CC)CC)CN(C)[C@@H]1C2
REMARK SMILES IDX 25 1 5 2 27 3 14 4 28 5 16 6 24 7 7 8 9 9 8 10 15 11 13 12
REMARK SMILES IDX 6 13 26 14 10 15 12 16 11 17 17 18 18 19 19 20 20 21 21 22
REMARK SMILES IDX 22 23 23 24 3 25 4 26 2 27 1 28
REMARK H PARENT
ROOT
ATOM      1  N   UNL     1     100.466 116.728  84.318  1.00  0.00    -0.298 NA
ATOM      2  N   UNL     1     101.169 120.015  79.311  1.00  0.00    -0.287 N 
ATOM      3  C   UNL     1     100.251 117.708  83.229  1.00  0.00     0.091 C 
ATOM      4  C   UNL     1      99.914 119.149  83.684  1.00  0.00    -0.026 C 
ATOM      5  C   UNL     1     101.461 117.685  82.228  1.00  0.00     0.061 C 
ATOM      6  C   UNL     1     100.354 118.597  86.074  1.00  0.00     0.116 C 
ATOM      7  C   UNL     1     101.069 117.341  85.517  1.00  0.00     0.102 C 
ATOM      8  C   UNL     1     101.241 118.715  81.165  1.00  0.00    -0.019 A 
ATOM      9  C   UNL     1      99.686 120.120  82.591  1.00  0.00    -0.011 A 
ATOM     10  C   UNL     1     100.395 119.816  81.412  1.00  0.00     0.011 A 
ATOM     11  C   UNL     1      99.939 119.534  84.974  1.00  0.00    -0.007 C 
ATOM     12  C   UNL     1     100.338 120.620  80.273  1.00  0.00     0.056 A 
ATOM     13  C   UNL     1     101.702 118.853  79.884  1.00  0.00     0.099 A 
ATOM     14  C   UNL     1      99.240 116.004  84.647  1.00  0.00     0.106 C 
ATOM     15  C   UNL     1      98.896 121.267  82.615  1.00  0.00     0.009 A 
ATOM     16  C   UNL     1      99.533 121.777  80.307  1.00  0.00     0.027 A 
ATOM     17  C   UNL     1      98.823 122.079  81.483  1.00  0.00     0.003 A 
ENDROOT
BRANCH   6  18
ATOM     18  C   UNL     1      99.328 118.238  87.181  1.00  0.00     0.230 C 
ATOM     19  O   UNL     1      99.205 117.073  87.571  1.00  0.00    -0.274 OA
ATOM     20  N   UNL     1      98.718 119.299  87.871  1.00  0.00    -0.343 N 
BRANCH  20  21
ATOM     21  C   UNL     1      97.681 120.056  87.158  1.00  0.00     0.116 C 
ATOM     22  C   UNL     1      96.267 119.797  87.666  1.00  0.00     0.027 C 
ENDBRANCH  20  21
BRANCH  20  23
ATOM     23  C   UNL     1      98.482 119.042  89.296  1.00  0.00     0.116 C 
ATOM     24  C   UNL     1      99.755 118.917  90.118  1.00  0.00     0.027 C 
ENDBRANCH  20  23
ENDBRANCH   6  18
BRANCH   2  25
ATOM     25  C   UNL     1     101.489 120.401  77.985  1.00  0.00     0.230 C 
ATOM     26  O   UNL     1     101.088 121.488  77.576  1.00  0.00    -0.274 OA
BRANCH  25  27
ATOM     27  C   UNL     1     102.304 119.440  77.166  1.00  0.00     0.097 C 
ATOM     28  C   UNL     1     103.781 119.808  77.167  1.00  0.00     0.014 C 
ENDBRANCH  25  27
ENDBRANCH   2  25
TORSDOF 5
ENDMDL
MODEL 11
REMARK VINA RESULT:    -4.881      2.512      4.634
REMARK INTER + INTRA:          -7.030
REMARK INTER:                  -7.070
REMARK INTRA:                   0.040
REMARK UNBOUND:                -0.722
REMARK SMILES CCC(=O)n1cc2c3c(cccc31)C1=C[C@@H](C(=O)N(CC)CC)CN(C)[C@@H]1C2
REMARK SMILES IDX 25 1 5 2 27 3 14 4 28 5 16 6 24 7 7 8 9 9 8 10 15 11 13 12
REMARK SMILES IDX 6 13 26 14 10 15 12 16 11 17 17 18 18 19 19 20 20 21 21 22
REMARK SMILES IDX 22 23 23 24 3 25 4 26 2 27 1 28
REMARK H PARENT
ROOT
ATOM      1  N   UNL     1     101.795 118.796  81.205  1.00  0.00    -0.298 NA
ATOM      2  N   UNL     1      99.801 118.040  86.846  1.00  0.00    -0.287 N 
ATOM      3  C   UNL     1     101.250 119.053  82.557  1.00  0.00     0.091 C 
ATOM      4  C   UNL     1      99.953 119.896  82.605  1.00  0.00    -0.026 C 
ATOM      5  C   UNL     1     101.093 117.704  83.347  1.00  0.00     0.061 C 
ATOM      6  C   UNL     1      99.714 119.841  80.126  1.00  0.00     0.116 C 
ATOM      7  C   UNL     1     100.737 118.680  80.183  1.00  0.00     0.102 C 
ATOM      8  C   UNL     1     100.499 117.987  84.692  1.00  0.00    -0.019 A 
ATOM      9  C   UNL     1      99.422 120.162  83.961  1.00  0.00    -0.011 A 
ATOM     10  C   UNL     1      99.738 119.156  84.896  1.00  0.00     0.011 A 
ATOM     11  C   UNL     1      99.281 120.269  81.501  1.00  0.00    -0.007 C 
ATOM     12  C   UNL     1      99.309 119.202  86.223  1.00  0.00     0.056 A 
ATOM     13  C   UNL     1     100.526 117.321  85.886  1.00  0.00     0.099 A 
ATOM     14  C   UNL     1     102.798 119.789  80.826  1.00  0.00     0.106 C 
ATOM     15  C   UNL     1      98.654 121.245  84.383  1.00  0.00     0.009 A 
ATOM     16  C   UNL     1      98.534 120.304  86.641  1.00  0.00     0.027 A 
ATOM     17  C   UNL     1      98.222 121.310  85.708  1.00  0.00     0.003 A 
ENDROOT
BRANCH   6  18
ATOM     18  C   UNL     1     100.126 120.927  79.097  1.00  0.00     0.230 C 
ATOM     19  O   UNL     1     101.172 120.817  78.451  1.00  0.00    -0.274 OA
ATOM     20  N   UNL     1      99.174 121.906  78.768  1.00  0.00    -0.343 N 
BRANCH  20  21
ATOM     21  C   UNL     1      98.913 122.952  79.766  1.00  0.00     0.116 C 
ATOM     22  C   UNL     1      97.437 123.302  79.923  1.00  0.00     0.027 C 
ENDBRANCH  20  21
BRANCH  20  23
ATOM     23  C   UNL     1      99.195 122.328  77.363  1.00  0.00     0.116 C 
ATOM     24  C   UNL     1      99.545 123.794  77.166  1.00  0.00     0.027 C 
ENDBRANCH  20  23
ENDBRANCH   6  18
BRANCH   2  25
ATOM     25  C   UNL     1      99.665 117.571  88.176  1.00  0.00     0.230 C 
ATOM     26  O   UNL     1     100.270 116.555  88.507  1.00  0.00    -0.274 OA
BRANCH  25  27
ATOM     27  C   UNL     1      98.776 118.360  89.097  1.00  0.00     0.097 C 
ATOM     28  C   UNL     1      99.546 118.914  90.287  1.00  0.00     0.014 C 
ENDBRANCH  25  27
ENDBRANCH   2  25
TORSDOF 5
ENDMDL
