MODEL 1
REMARK VINA RESULT:    -8.802      0.000      0.000
REMARK INTER + INTRA:         -11.890
REMARK INTER:                 -11.375
REMARK INTRA:                  -0.515
REMARK UNBOUND:                -0.515
REMARK SMILES CCC(=O)n1cc2c3c(cccc31)C1=C[C@@H](C(=O)N(CC)CC)CN(C)[C@@H]1C2
REMARK SMILES IDX 25 1 5 2 27 3 14 4 28 5 16 6 24 7 7 8 9 9 8 10 15 11 13 12
REMARK SMILES IDX 6 13 26 14 10 15 12 16 11 17 17 18 18 19 19 20 20 21 21 22
REMARK SMILES IDX 22 23 23 24 3 25 4 26 2 27 1 28
REMARK H PARENT
ROOT
ATOM      1  N   UNL     1      89.024 107.450  77.521  1.00  0.00    -0.298 NA
ATOM      2  N   UNL     1      89.210 109.904  83.027  1.00  0.00    -0.287 N 
ATOM      3  C   UNL     1      89.372 107.728  78.934  1.00  0.00     0.091 C 
ATOM      4  C   UNL     1      90.886 107.827  79.242  1.00  0.00    -0.026 C 
ATOM      5  C   UNL     1      88.593 108.991  79.448  1.00  0.00     0.061 C 
ATOM      6  C   UNL     1      91.480 107.717  76.824  1.00  0.00     0.116 C 
ATOM      7  C   UNL     1      89.987 108.046  76.576  1.00  0.00     0.102 C 
ATOM      8  C   UNL     1      88.996 109.278  80.861  1.00  0.00    -0.019 A 
ATOM      9  C   UNL     1      91.227 108.091  80.658  1.00  0.00    -0.011 A 
ATOM     10  C   UNL     1      90.237 108.819  81.348  1.00  0.00     0.011 A 
ATOM     11  C   UNL     1      91.831 107.795  78.284  1.00  0.00    -0.007 C 
ATOM     12  C   UNL     1      90.376 109.193  82.685  1.00  0.00     0.056 A 
ATOM     13  C   UNL     1      88.387 109.935  81.894  1.00  0.00     0.099 A 
ATOM     14  C   UNL     1      88.849 106.020  77.277  1.00  0.00     0.106 C 
ATOM     15  C   UNL     1      92.386 107.731  81.341  1.00  0.00     0.009 A 
ATOM     16  C   UNL     1      91.552 108.821  83.369  1.00  0.00     0.027 A 
ATOM     17  C   UNL     1      92.538 108.091  82.680  1.00  0.00     0.003 A 
ENDROOT
BRANCH   6  18
ATOM     18  C   UNL     1      91.947 106.484  76.006  1.00  0.00     0.230 C 
ATOM     19  O   UNL     1      92.222 105.421  76.571  1.00  0.00    -0.274 OA
ATOM     20  N   UNL     1      91.828 106.549  74.608  1.00  0.00    -0.343 N 
BRANCH  20  21
ATOM     21  C   UNL     1      92.795 107.390  73.889  1.00  0.00     0.116 C 
ATOM     22  C   UNL     1      92.234 108.032  72.624  1.00  0.00     0.027 C 
ENDBRANCH  20  21
BRANCH  20  23
ATOM     23  C   UNL     1      91.456 105.282  73.969  1.00  0.00     0.116 C 
ATOM     24  C   UNL     1      89.955 105.084  73.822  1.00  0.00     0.027 C 
ENDBRANCH  20  23
ENDBRANCH   6  18
BRANCH   2  25
ATOM     25  C   UNL     1      88.820 110.518  84.244  1.00  0.00     0.230 C 
ATOM     26  O   UNL     1      89.059 109.937  85.299  1.00  0.00    -0.274 OA
BRANCH  25  27
ATOM     27  C   UNL     1      88.133 111.851  84.152  1.00  0.00     0.097 C 
ATOM     28  C   UNL     1      88.746 112.730  83.072  1.00  0.00     0.014 C 
ENDBRANCH  25  27
ENDBRANCH   2  25
TORSDOF 5
ENDMDL
MODEL 2
REMARK VINA RESULT:    -8.011      2.632      8.449
REMARK INTER + INTRA:         -10.868
REMARK INTER:                 -10.732
REMARK INTRA:                  -0.136
REMARK UNBOUND:                -0.515
REMARK SMILES CCC(=O)n1cc2c3c(cccc31)C1=C[C@@H](C(=O)N(CC)CC)CN(C)[C@@H]1C2
REMARK SMILES IDX 25 1 5 2 27 3 14 4 28 5 16 6 24 7 7 8 9 9 8 10 15 11 13 12
REMARK SMILES IDX 6 13 26 14 10 15 12 16 11 17 17 18 18 19 19 20 20 21 21 22
REMARK SMILES IDX 22 23 23 24 3 25 4 26 2 27 1 28
REMARK H PARENT
ROOT
ATOM      1  N   UNL     1      89.890 107.744  79.054  1.00  0.00    -0.298 NA
ATOM      2  N   UNL     1      93.339 109.130  74.304  1.00  0.00    -0.287 N 
ATOM      3  C   UNL     1      90.396 108.363  77.807  1.00  0.00     0.091 C 
ATOM      4  C   UNL     1      90.365 109.910  77.769  1.00  0.00    -0.026 C 
ATOM      5  C   UNL     1      91.822 107.803  77.461  1.00  0.00     0.061 C 
ATOM      6  C   UNL     1      89.708 110.050  80.168  1.00  0.00     0.116 C 
ATOM      7  C   UNL     1      90.164 108.571  80.245  1.00  0.00     0.102 C 
ATOM      8  C   UNL     1      92.329 108.476  76.224  1.00  0.00    -0.019 A 
ATOM      9  C   UNL     1      90.858 110.521  76.514  1.00  0.00    -0.011 A 
ATOM     10  C   UNL     1      91.825 109.739  75.850  1.00  0.00     0.011 A 
ATOM     11  C   UNL     1      90.028 110.662  78.833  1.00  0.00    -0.007 C 
ATOM     12  C   UNL     1      92.436 110.148  74.664  1.00  0.00     0.056 A 
ATOM     13  C   UNL     1      93.247 108.122  75.274  1.00  0.00     0.099 A 
ATOM     14  C   UNL     1      88.472 107.403  78.954  1.00  0.00     0.106 C 
ATOM     15  C   UNL     1      90.500 111.747  75.960  1.00  0.00     0.009 A 
ATOM     16  C   UNL     1      92.063 111.389  74.109  1.00  0.00     0.027 A 
ATOM     17  C   UNL     1      91.096 112.168  74.771  1.00  0.00     0.003 A 
ENDROOT
BRANCH   6  18
ATOM     18  C   UNL     1      88.290 110.251  80.765  1.00  0.00     0.230 C 
ATOM     19  O   UNL     1      87.366 109.488  80.464  1.00  0.00    -0.274 OA
ATOM     20  N   UNL     1      88.151 111.174  81.814  1.00  0.00    -0.343 N 
BRANCH  20  21
ATOM     21  C   UNL     1      88.205 112.601  81.466  1.00  0.00     0.116 C 
ATOM     22  C   UNL     1      87.225 113.007  80.370  1.00  0.00     0.027 C 
ENDBRANCH  20  21
BRANCH  20  23
ATOM     23  C   UNL     1      87.181 110.785  82.843  1.00  0.00     0.116 C 
ATOM     24  C   UNL     1      87.725 110.855  84.261  1.00  0.00     0.027 C 
ENDBRANCH  20  23
ENDBRANCH   6  18
BRANCH   2  25
ATOM     25  C   UNL     1      94.224 109.020  73.203  1.00  0.00     0.230 C 
ATOM     26  O   UNL     1      95.245 108.349  73.333  1.00  0.00    -0.274 OA
BRANCH  25  27
ATOM     27  C   UNL     1      93.844 109.742  71.941  1.00  0.00     0.097 C 
ATOM     28  C   UNL     1      92.635 109.107  71.268  1.00  0.00     0.014 C 
ENDBRANCH  25  27
ENDBRANCH   2  25
TORSDOF 5
ENDMDL
MODEL 3
REMARK VINA RESULT:    -8.008      2.568      8.136
REMARK INTER + INTRA:         -10.863
REMARK INTER:                 -10.583
REMARK INTRA:                  -0.280
REMARK UNBOUND:                -0.515
REMARK SMILES CCC(=O)n1cc2c3c(cccc31)C1=C[C@@H](C(=O)N(CC)CC)CN(C)[C@@H]1C2
REMARK SMILES IDX 25 1 5 2 27 3 14 4 28 5 16 6 24 7 7 8 9 9 8 10 15 11 13 12
REMARK SMILES IDX 6 13 26 14 10 15 12 16 11 17 17 18 18 19 19 20 20 21 21 22
REMARK SMILES IDX 22 23 23 24 3 25 4 26 2 27 1 28
REMARK H PARENT
ROOT
ATOM      1  N   UNL     1      88.364 109.480  81.074  1.00  0.00    -0.298 NA
ATOM      2  N   UNL     1      91.455 107.767  76.188  1.00  0.00    -0.287 N 
ATOM      3  C   UNL     1      88.977 109.456  79.727  1.00  0.00     0.091 C 
ATOM      4  C   UNL     1      89.775 110.723  79.333  1.00  0.00    -0.026 C 
ATOM      5  C   UNL     1      89.833 108.152  79.541  1.00  0.00     0.061 C 
ATOM      6  C   UNL     1      89.571 111.678  81.626  1.00  0.00     0.116 C 
ATOM      7  C   UNL     1      89.170 110.242  82.047  1.00  0.00     0.102 C 
ATOM      8  C   UNL     1      90.478 108.173  78.190  1.00  0.00    -0.019 A 
ATOM      9  C   UNL     1      90.373 110.698  77.979  1.00  0.00    -0.011 A 
ATOM     10  C   UNL     1      90.689 109.400  77.528  1.00  0.00     0.011 A 
ATOM     11  C   UNL     1      90.016 111.732  80.190  1.00  0.00    -0.007 C 
ATOM     12  C   UNL     1      91.285 109.161  76.289  1.00  0.00     0.056 A 
ATOM     13  C   UNL     1      90.950 107.193  77.362  1.00  0.00     0.099 A 
ATOM     14  C   UNL     1      86.983 109.957  81.034  1.00  0.00     0.106 C 
ATOM     15  C   UNL     1      90.666 111.779  77.153  1.00  0.00     0.009 A 
ATOM     16  C   UNL     1      91.575 110.262  75.458  1.00  0.00     0.027 A 
ATOM     17  C   UNL     1      91.256 111.557  75.908  1.00  0.00     0.003 A 
ENDROOT
BRANCH   6  18
ATOM     18  C   UNL     1      88.559 112.736  82.138  1.00  0.00     0.230 C 
ATOM     19  O   UNL     1      88.452 112.972  83.345  1.00  0.00    -0.274 OA
ATOM     20  N   UNL     1      87.944 113.563  81.184  1.00  0.00    -0.343 N 
BRANCH  20  21
ATOM     21  C   UNL     1      86.892 112.962  80.352  1.00  0.00     0.116 C 
ATOM     22  C   UNL     1      87.024 113.279  78.866  1.00  0.00     0.027 C 
ENDBRANCH  20  21
BRANCH  20  23
ATOM     23  C   UNL     1      87.724 114.944  81.626  1.00  0.00     0.116 C 
ATOM     24  C   UNL     1      87.739 115.962  80.497  1.00  0.00     0.027 C 
ENDBRANCH  20  23
ENDBRANCH   6  18
BRANCH   2  25
ATOM     25  C   UNL     1      92.013 106.973  75.155  1.00  0.00     0.230 C 
ATOM     26  O   UNL     1      93.005 107.389  74.562  1.00  0.00    -0.274 OA
BRANCH  25  27
ATOM     27  C   UNL     1      91.340 105.662  74.855  1.00  0.00     0.097 C 
ATOM     28  C   UNL     1      89.990 105.862  74.181  1.00  0.00     0.014 C 
ENDBRANCH  25  27
ENDBRANCH   2  25
TORSDOF 5
ENDMDL
MODEL 4
REMARK VINA RESULT:    -7.781      2.499      3.561
REMARK INTER + INTRA:         -10.571
REMARK INTER:                 -10.389
REMARK INTRA:                  -0.181
REMARK UNBOUND:                -0.515
REMARK SMILES CCC(=O)n1cc2c3c(cccc31)C1=C[C@@H](C(=O)N(CC)CC)CN(C)[C@@H]1C2
REMARK SMILES IDX 25 1 5 2 27 3 14 4 28 5 16 6 24 7 7 8 9 9 8 10 15 11 13 12
REMARK SMILES IDX 6 13 26 14 10 15 12 16 11 17 17 18 18 19 19 20 20 21 21 22
REMARK SMILES IDX 22 23 23 24 3 25 4 26 2 27 1 28
REMARK H PARENT
ROOT
ATOM      1  N   UNL     1      90.700 105.637  77.065  1.00  0.00    -0.298 NA
ATOM      2  N   UNL     1      89.356 110.793  79.890  1.00  0.00    -0.287 N 
ATOM      3  C   UNL     1      90.706 107.051  77.503  1.00  0.00     0.091 C 
ATOM      4  C   UNL     1      90.698 108.102  76.367  1.00  0.00    -0.026 C 
ATOM      5  C   UNL     1      89.550 107.307  78.536  1.00  0.00     0.061 C 
ATOM      6  C   UNL     1      90.353 106.355  74.625  1.00  0.00     0.116 C 
ATOM      7  C   UNL     1      89.952 105.439  75.808  1.00  0.00     0.102 C 
ATOM      8  C   UNL     1      89.549 108.751  78.927  1.00  0.00    -0.019 A 
ATOM      9  C   UNL     1      90.719 109.514  76.812  1.00  0.00    -0.011 A 
ATOM     10  C   UNL     1      90.118 109.716  78.071  1.00  0.00     0.011 A 
ATOM     11  C   UNL     1      90.564 107.776  75.068  1.00  0.00    -0.007 C 
ATOM     12  C   UNL     1      90.011 110.977  78.658  1.00  0.00     0.056 A 
ATOM     13  C   UNL     1      89.091 109.423  80.027  1.00  0.00     0.099 A 
ATOM     14  C   UNL     1      92.053 105.091  76.974  1.00  0.00     0.106 C 
ATOM     15  C   UNL     1      91.227 110.619  76.132  1.00  0.00     0.009 A 
ATOM     16  C   UNL     1      90.531 112.088  77.963  1.00  0.00     0.027 A 
ATOM     17  C   UNL     1      91.133 111.886  76.708  1.00  0.00     0.003 A 
ENDROOT
BRANCH   6  18
ATOM     18  C   UNL     1      91.414 105.689  73.709  1.00  0.00     0.230 C 
ATOM     19  O   UNL     1      92.342 105.035  74.195  1.00  0.00    -0.274 OA
ATOM     20  N   UNL     1      91.159 105.665  72.328  1.00  0.00    -0.343 N 
BRANCH  20  21
ATOM     21  C   UNL     1      91.319 106.927  71.593  1.00  0.00     0.116 C 
ATOM     22  C   UNL     1      92.363 107.863  72.193  1.00  0.00     0.027 C 
ENDBRANCH  20  21
BRANCH  20  23
ATOM     23  C   UNL     1      91.607 104.446  71.647  1.00  0.00     0.116 C 
ATOM     24  C   UNL     1      90.696 103.248  71.865  1.00  0.00     0.027 C 
ENDBRANCH  20  23
ENDBRANCH   6  18
BRANCH   2  25
ATOM     25  C   UNL     1      88.981 111.723  80.890  1.00  0.00     0.230 C 
ATOM     26  O   UNL     1      89.864 112.304  81.516  1.00  0.00    -0.274 OA
BRANCH  25  27
ATOM     27  C   UNL     1      87.510 111.933  81.118  1.00  0.00     0.097 C 
ATOM     28  C   UNL     1      86.883 112.778  80.018  1.00  0.00     0.014 C 
ENDBRANCH  25  27
ENDBRANCH   2  25
TORSDOF 5
ENDMDL
MODEL 5
REMARK VINA RESULT:    -7.738      1.835      8.546
REMARK INTER + INTRA:         -10.514
REMARK INTER:                  -9.940
REMARK INTRA:                  -0.574
REMARK UNBOUND:                -0.515
REMARK SMILES CCC(=O)n1cc2c3c(cccc31)C1=C[C@@H](C(=O)N(CC)CC)CN(C)[C@@H]1C2
REMARK SMILES IDX 25 1 5 2 27 3 14 4 28 5 16 6 24 7 7 8 9 9 8 10 15 11 13 12
REMARK SMILES IDX 6 13 26 14 10 15 12 16 11 17 17 18 18 19 19 20 20 21 21 22
REMARK SMILES IDX 22 23 23 24 3 25 4 26 2 27 1 28
REMARK H PARENT
ROOT
ATOM      1  N   UNL     1      88.697 107.131  79.119  1.00  0.00    -0.298 NA
ATOM      2  N   UNL     1      91.235 105.669  73.848  1.00  0.00    -0.287 N 
ATOM      3  C   UNL     1      89.420 107.209  77.829  1.00  0.00     0.091 C 
ATOM      4  C   UNL     1      90.798 107.911  77.877  1.00  0.00    -0.026 C 
ATOM      5  C   UNL     1      89.518 105.785  77.174  1.00  0.00     0.061 C 
ATOM      6  C   UNL     1      90.742 108.059  80.364  1.00  0.00     0.116 C 
ATOM      7  C   UNL     1      89.611 107.005  80.271  1.00  0.00     0.102 C 
ATOM      8  C   UNL     1      90.291 105.882  75.896  1.00  0.00    -0.019 A 
ATOM      9  C   UNL     1      91.509 107.997  76.581  1.00  0.00    -0.011 A 
ATOM     10  C   UNL     1      91.194 106.946  75.697  1.00  0.00     0.011 A 
ATOM     11  C   UNL     1      91.375 108.314  79.024  1.00  0.00    -0.007 C 
ATOM     12  C   UNL     1      91.776 106.829  74.434  1.00  0.00     0.056 A 
ATOM     13  C   UNL     1      90.329 105.117  74.763  1.00  0.00     0.099 A 
ATOM     14  C   UNL     1      87.772 108.250  79.291  1.00  0.00     0.106 C 
ATOM     15  C   UNL     1      92.434 108.955  76.175  1.00  0.00     0.009 A 
ATOM     16  C   UNL     1      92.710 107.805  74.030  1.00  0.00     0.027 A 
ATOM     17  C   UNL     1      93.021 108.856  74.913  1.00  0.00     0.003 A 
ENDROOT
BRANCH   6  18
ATOM     18  C   UNL     1      90.335 109.270  81.245  1.00  0.00     0.230 C 
ATOM     19  O   UNL     1      90.303 110.410  80.771  1.00  0.00    -0.274 OA
ATOM     20  N   UNL     1      89.796 108.999  82.513  1.00  0.00    -0.343 N 
BRANCH  20  21
ATOM     21  C   UNL     1      90.727 108.553  83.559  1.00  0.00     0.116 C 
ATOM     22  C   UNL     1      92.192 108.837  83.243  1.00  0.00     0.027 C 
ENDBRANCH  20  21
BRANCH  20  23
ATOM     23  C   UNL     1      88.730 109.917  82.929  1.00  0.00     0.116 C 
ATOM     24  C   UNL     1      88.799 110.316  84.395  1.00  0.00     0.027 C 
ENDBRANCH  20  23
ENDBRANCH   6  18
BRANCH   2  25
ATOM     25  C   UNL     1      91.471 105.069  72.586  1.00  0.00     0.230 C 
ATOM     26  O   UNL     1      91.917 105.765  71.677  1.00  0.00    -0.274 OA
BRANCH  25  27
ATOM     27  C   UNL     1      91.154 103.606  72.449  1.00  0.00     0.097 C 
ATOM     28  C   UNL     1      90.600 103.275  71.071  1.00  0.00     0.014 C 
ENDBRANCH  25  27
ENDBRANCH   2  25
TORSDOF 5
ENDMDL
MODEL 6
REMARK VINA RESULT:    -7.659      2.488      8.385
REMARK INTER + INTRA:         -10.413
REMARK INTER:                 -10.406
REMARK INTRA:                  -0.007
REMARK UNBOUND:                -0.515
REMARK SMILES CCC(=O)n1cc2c3c(cccc31)C1=C[C@@H](C(=O)N(CC)CC)CN(C)[C@@H]1C2
REMARK SMILES IDX 25 1 5 2 27 3 14 4 28 5 16 6 24 7 7 8 9 9 8 10 15 11 13 12
REMARK SMILES IDX 6 13 26 14 10 15 12 16 11 17 17 18 18 19 19 20 20 21 21 22
REMARK SMILES IDX 22 23 23 24 3 25 4 26 2 27 1 28
REMARK H PARENT
ROOT
ATOM      1  N   UNL     1      89.356 108.425  79.991  1.00  0.00    -0.298 NA
ATOM      2  N   UNL     1      92.480 108.629  74.836  1.00  0.00    -0.287 N 
ATOM      3  C   UNL     1      89.859 108.831  78.658  1.00  0.00     0.091 C 
ATOM      4  C   UNL     1      90.228 110.327  78.510  1.00  0.00    -0.026 C 
ATOM      5  C   UNL     1      91.042 107.896  78.215  1.00  0.00     0.061 C 
ATOM      6  C   UNL     1      89.908 110.744  80.946  1.00  0.00     0.116 C 
ATOM      7  C   UNL     1      89.970 109.202  81.085  1.00  0.00     0.102 C 
ATOM      8  C   UNL     1      91.562 108.354  76.888  1.00  0.00    -0.019 A 
ATOM      9  C   UNL     1      90.716 110.728  77.171  1.00  0.00    -0.011 A 
ATOM     10  C   UNL     1      91.364 109.688  76.475  1.00  0.00     0.011 A 
ATOM     11  C   UNL     1      90.222 111.188  79.544  1.00  0.00    -0.007 C 
ATOM     12  C   UNL     1      91.920 109.866  75.207  1.00  0.00     0.056 A 
ATOM     13  C   UNL     1      92.241 107.726  75.881  1.00  0.00     0.099 A 
ATOM     14  C   UNL     1      87.897 108.470  80.057  1.00  0.00     0.106 C 
ATOM     15  C   UNL     1      90.628 111.979  76.567  1.00  0.00     0.009 A 
ATOM     16  C   UNL     1      91.822 111.136  74.603  1.00  0.00     0.027 A 
ATOM     17  C   UNL     1      91.173 112.173  75.298  1.00  0.00     0.003 A 
ENDROOT
BRANCH   6  18
ATOM     18  C   UNL     1      88.669 111.342  81.663  1.00  0.00     0.230 C 
ATOM     19  O   UNL     1      88.032 112.268  81.152  1.00  0.00    -0.274 OA
ATOM     20  N   UNL     1      88.172 110.656  82.783  1.00  0.00    -0.343 N 
BRANCH  20  21
ATOM     21  C   UNL     1      88.942 110.758  84.031  1.00  0.00     0.116 C 
ATOM     22  C   UNL     1      89.331 109.410  84.629  1.00  0.00     0.027 C 
ENDBRANCH  20  21
BRANCH  20  23
ATOM     23  C   UNL     1      86.711 110.674  82.909  1.00  0.00     0.116 C 
ATOM     24  C   UNL     1      85.979 110.284  81.634  1.00  0.00     0.027 C 
ENDBRANCH  20  23
ENDBRANCH   6  18
BRANCH   2  25
ATOM     25  C   UNL     1      93.174 108.238  73.664  1.00  0.00     0.230 C 
ATOM     26  O   UNL     1      92.665 107.392  72.933  1.00  0.00    -0.274 OA
BRANCH  25  27
ATOM     27  C   UNL     1      94.500 108.894  73.398  1.00  0.00     0.097 C 
ATOM     28  C   UNL     1      94.457 109.770  72.154  1.00  0.00     0.014 C 
ENDBRANCH  25  27
ENDBRANCH   2  25
TORSDOF 5
ENDMDL
MODEL 7
REMARK VINA RESULT:    -7.442      2.059      8.245
REMARK INTER + INTRA:         -10.132
REMARK INTER:                 -11.374
REMARK INTRA:                   1.242
REMARK UNBOUND:                -0.515
REMARK SMILES CCC(=O)n1cc2c3c(cccc31)C1=C[C@@H](C(=O)N(CC)CC)CN(C)[C@@H]1C2
REMARK SMILES IDX 25 1 5 2 27 3 14 4 28 5 16 6 24 7 7 8 9 9 8 10 15 11 13 12
REMARK SMILES IDX 6 13 26 14 10 15 12 16 11 17 17 18 18 19 19 20 20 21 21 22
REMARK SMILES IDX 22 23 23 24 3 25 4 26 2 27 1 28
REMARK H PARENT
ROOT
ATOM      1  N   UNL     1      89.909 111.268  80.013  1.00  0.00    -0.298 NA
ATOM      2  N   UNL     1      91.031 107.259  75.649  1.00  0.00    -0.287 N 
ATOM      3  C   UNL     1      90.087 109.998  79.272  1.00  0.00     0.091 C 
ATOM      4  C   UNL     1      88.924 108.984  79.396  1.00  0.00    -0.026 C 
ATOM      5  C   UNL     1      90.443 110.289  77.770  1.00  0.00     0.061 C 
ATOM      6  C   UNL     1      87.494 110.628  80.605  1.00  0.00     0.116 C 
ATOM      7  C   UNL     1      88.495 111.687  80.082  1.00  0.00     0.102 C 
ATOM      8  C   UNL     1      90.572 108.992  77.034  1.00  0.00    -0.019 A 
ATOM      9  C   UNL     1      89.115 107.711  78.665  1.00  0.00    -0.011 A 
ATOM     10  C   UNL     1      89.927 107.837  77.520  1.00  0.00     0.011 A 
ATOM     11  C   UNL     1      87.768 109.269  80.023  1.00  0.00    -0.007 C 
ATOM     12  C   UNL     1      90.209 106.761  76.678  1.00  0.00     0.056 A 
ATOM     13  C   UNL     1      91.238 108.623  75.897  1.00  0.00     0.099 A 
ATOM     14  C   UNL     1      90.515 111.211  81.342  1.00  0.00     0.106 C 
ATOM     15  C   UNL     1      88.578 106.462  78.966  1.00  0.00     0.009 A 
ATOM     16  C   UNL     1      89.662 105.500  76.992  1.00  0.00     0.027 A 
ATOM     17  C   UNL     1      88.855 105.374  78.138  1.00  0.00     0.003 A 
ENDROOT
BRANCH   6  18
ATOM     18  C   UNL     1      87.260 110.756  82.133  1.00  0.00     0.230 C 
ATOM     19  O   UNL     1      86.495 109.984  82.720  1.00  0.00    -0.274 OA
ATOM     20  N   UNL     1      88.106 111.618  82.851  1.00  0.00    -0.343 N 
BRANCH  20  21
ATOM     21  C   UNL     1      87.883 113.062  82.697  1.00  0.00     0.116 C 
ATOM     22  C   UNL     1      89.151 113.855  82.401  1.00  0.00     0.027 C 
ENDBRANCH  20  21
BRANCH  20  23
ATOM     23  C   UNL     1      88.458 111.146  84.194  1.00  0.00     0.116 C 
ATOM     24  C   UNL     1      89.297 109.878  84.202  1.00  0.00     0.027 C 
ENDBRANCH  20  23
ENDBRANCH   6  18
BRANCH   2  25
ATOM     25  C   UNL     1      91.606 106.615  74.526  1.00  0.00     0.230 C 
ATOM     26  O   UNL     1      92.823 106.679  74.370  1.00  0.00    -0.274 OA
BRANCH  25  27
ATOM     27  C   UNL     1      90.674 105.893  73.594  1.00  0.00     0.097 C 
ATOM     28  C   UNL     1      91.277 104.589  73.091  1.00  0.00     0.014 C 
ENDBRANCH  25  27
ENDBRANCH   2  25
TORSDOF 5
ENDMDL
MODEL 8
REMARK VINA RESULT:    -7.440      2.167      3.303
REMARK INTER + INTRA:         -10.130
REMARK INTER:                  -9.443
REMARK INTRA:                  -0.687
REMARK UNBOUND:                -0.515
REMARK SMILES CCC(=O)n1cc2c3c(cccc31)C1=C[C@@H](C(=O)N(CC)CC)CN(C)[C@@H]1C2
REMARK SMILES IDX 25 1 5 2 27 3 14 4 28 5 16 6 24 7 7 8 9 9 8 10 15 11 13 12
REMARK SMILES IDX 6 13 26 14 10 15 12 16 11 17 17 18 18 19 19 20 20 21 21 22
REMARK SMILES IDX 22 23 23 24 3 25 4 26 2 27 1 28
REMARK H PARENT
ROOT
ATOM      1  N   UNL     1      90.142 105.617  77.368  1.00  0.00    -0.298 NA
ATOM      2  N   UNL     1      89.428 110.696  80.540  1.00  0.00    -0.287 N 
ATOM      3  C   UNL     1      90.270 107.010  77.852  1.00  0.00     0.091 C 
ATOM      4  C   UNL     1      90.151 108.108  76.767  1.00  0.00    -0.026 C 
ATOM      5  C   UNL     1      89.281 107.265  79.045  1.00  0.00     0.061 C 
ATOM      6  C   UNL     1      89.492 106.450  75.028  1.00  0.00     0.116 C 
ATOM      7  C   UNL     1      89.220 105.501  76.221  1.00  0.00     0.102 C 
ATOM      8  C   UNL     1      89.397 108.691  79.486  1.00  0.00    -0.019 A 
ATOM      9  C   UNL     1      90.295 109.498  77.256  1.00  0.00    -0.011 A 
ATOM     10  C   UNL     1      89.883 109.669  78.594  1.00  0.00     0.011 A 
ATOM     11  C   UNL     1      89.824 107.842  75.489  1.00  0.00    -0.007 C 
ATOM     12  C   UNL     1      89.913 110.907  79.236  1.00  0.00     0.056 A 
ATOM     13  C   UNL     1      89.125 109.333  80.663  1.00  0.00     0.099 A 
ATOM     14  C   UNL     1      91.444 105.024  77.068  1.00  0.00     0.106 C 
ATOM     15  C   UNL     1      90.751 110.610  76.554  1.00  0.00     0.009 A 
ATOM     16  C   UNL     1      90.380 112.027  78.516  1.00  0.00     0.027 A 
ATOM     17  C   UNL     1      90.793 111.855  77.183  1.00  0.00     0.003 A 
ENDROOT
BRANCH   6  18
ATOM     18  C   UNL     1      90.386 105.784  73.949  1.00  0.00     0.230 C 
ATOM     19  O   UNL     1      90.083 104.687  73.469  1.00  0.00    -0.274 OA
ATOM     20  N   UNL     1      91.411 106.560  73.384  1.00  0.00    -0.343 N 
BRANCH  20  21
ATOM     21  C   UNL     1      92.599 106.811  74.212  1.00  0.00     0.116 C 
ATOM     22  C   UNL     1      93.057 108.266  74.211  1.00  0.00     0.027 C 
ENDBRANCH  20  21
BRANCH  20  23
ATOM     23  C   UNL     1      91.644 106.315  71.957  1.00  0.00     0.116 C 
ATOM     24  C   UNL     1      91.365 107.519  71.071  1.00  0.00     0.027 C 
ENDBRANCH  20  23
ENDBRANCH   6  18
BRANCH   2  25
ATOM     25  C   UNL     1      89.235 111.597  81.617  1.00  0.00     0.230 C 
ATOM     26  O   UNL     1      89.028 112.781  81.363  1.00  0.00    -0.274 OA
BRANCH  25  27
ATOM     27  C   UNL     1      89.301 111.032  83.008  1.00  0.00     0.097 C 
ATOM     28  C   UNL     1      87.991 111.224  83.758  1.00  0.00     0.014 C 
ENDBRANCH  25  27
ENDBRANCH   2  25
TORSDOF 5
ENDMDL
MODEL 9
REMARK VINA RESULT:    -7.287      2.579      8.420
REMARK INTER + INTRA:          -9.932
REMARK INTER:                  -9.208
REMARK INTRA:                  -0.724
REMARK UNBOUND:                -0.515
REMARK SMILES CCC(=O)n1cc2c3c(cccc31)C1=C[C@@H](C(=O)N(CC)CC)CN(C)[C@@H]1C2
REMARK SMILES IDX 25 1 5 2 27 3 14 4 28 5 16 6 24 7 7 8 9 9 8 10 15 11 13 12
REMARK SMILES IDX 6 13 26 14 10 15 12 16 11 17 17 18 18 19 19 20 20 21 21 22
REMARK SMILES IDX 22 23 23 24 3 25 4 26 2 27 1 28
REMARK H PARENT
ROOT
ATOM      1  N   UNL     1      89.964 111.814  79.527  1.00  0.00    -0.298 NA
ATOM      2  N   UNL     1      92.334 109.448  74.511  1.00  0.00    -0.287 N 
ATOM      3  C   UNL     1      90.639 110.899  78.578  1.00  0.00     0.091 C 
ATOM      4  C   UNL     1      90.134 109.436  78.587  1.00  0.00    -0.026 C 
ATOM      5  C   UNL     1      90.624 111.508  77.130  1.00  0.00     0.061 C 
ATOM      6  C   UNL     1      88.249 109.997  80.117  1.00  0.00     0.116 C 
ATOM      7  C   UNL     1      88.544 111.467  79.730  1.00  0.00     0.102 C 
ATOM      8  C   UNL     1      91.271 110.545  76.184  1.00  0.00    -0.019 A 
ATOM      9  C   UNL     1      90.823 108.523  77.646  1.00  0.00    -0.011 A 
ATOM     10  C   UNL     1      91.327 109.172  76.501  1.00  0.00     0.011 A 
ATOM     11  C   UNL     1      89.070 109.033  79.305  1.00  0.00    -0.007 C 
ATOM     12  C   UNL     1      91.986 108.488  75.479  1.00  0.00     0.056 A 
ATOM     13  C   UNL     1      91.887 110.694  74.971  1.00  0.00     0.099 A 
ATOM     14  C   UNL     1      90.680 111.903  80.798  1.00  0.00     0.106 C 
ATOM     15  C   UNL     1      90.995 107.146  77.760  1.00  0.00     0.009 A 
ATOM     16  C   UNL     1      92.158 107.094  75.606  1.00  0.00     0.027 A 
ATOM     17  C   UNL     1      91.658 106.448  76.751  1.00  0.00     0.003 A 
ENDROOT
BRANCH   6  18
ATOM     18  C   UNL     1      88.172 109.806  81.655  1.00  0.00     0.230 C 
ATOM     19  O   UNL     1      89.015 109.125  82.248  1.00  0.00    -0.274 OA
ATOM     20  N   UNL     1      87.259 110.604  82.364  1.00  0.00    -0.343 N 
BRANCH  20  21
ATOM     21  C   UNL     1      85.835 110.260  82.251  1.00  0.00     0.116 C 
ATOM     22  C   UNL     1      85.200 109.818  83.566  1.00  0.00     0.027 C 
ENDBRANCH  20  21
BRANCH  20  23
ATOM     23  C   UNL     1      87.728 111.038  83.684  1.00  0.00     0.116 C 
ATOM     24  C   UNL     1      88.470 112.365  83.669  1.00  0.00     0.027 C 
ENDBRANCH  20  23
ENDBRANCH   6  18
BRANCH   2  25
ATOM     25  C   UNL     1      93.006 109.315  73.270  1.00  0.00     0.230 C 
ATOM     26  O   UNL     1      93.462 108.216  72.963  1.00  0.00    -0.274 OA
BRANCH  25  27
ATOM     27  C   UNL     1      93.115 110.543  72.411  1.00  0.00     0.097 C 
ATOM     28  C   UNL     1      92.226 110.451  71.178  1.00  0.00     0.014 C 
ENDBRANCH  25  27
ENDBRANCH   2  25
TORSDOF 5
ENDMDL
MODEL 10
REMARK VINA RESULT:    -6.927      2.698      4.093
REMARK INTER + INTRA:          -9.467
REMARK INTER:                  -9.240
REMARK INTRA:                  -0.226
REMARK UNBOUND:                -0.515
REMARK SMILES CCC(=O)n1cc2c3c(cccc31)C1=C[C@@H](C(=O)N(CC)CC)CN(C)[C@@H]1C2
REMARK SMILES IDX 25 1 5 2 27 3 14 4 28 5 16 6 24 7 7 8 9 9 8 10 15 11 13 12
REMARK SMILES IDX 6 13 26 14 10 15 12 16 11 17 17 18 18 19 19 20 20 21 21 22
REMARK SMILES IDX 22 23 23 24 3 25 4 26 2 27 1 28
REMARK H PARENT
ROOT
ATOM      1  N   UNL     1      91.468 111.465  75.260  1.00  0.00    -0.298 NA
ATOM      2  N   UNL     1      88.947 110.229  80.597  1.00  0.00    -0.287 N 
ATOM      3  C   UNL     1      90.665 110.832  76.330  1.00  0.00     0.091 C 
ATOM      4  C   UNL     1      90.822 109.298  76.465  1.00  0.00    -0.026 C 
ATOM      5  C   UNL     1      90.910 111.562  77.699  1.00  0.00     0.061 C 
ATOM      6  C   UNL     1      92.684 109.248  74.810  1.00  0.00     0.116 C 
ATOM      7  C   UNL     1      92.756 110.778  75.041  1.00  0.00     0.102 C 
ATOM      8  C   UNL     1      90.123 110.875  78.772  1.00  0.00    -0.019 A 
ATOM      9  C   UNL     1      90.005 108.670  77.528  1.00  0.00    -0.011 A 
ATOM     10  C   UNL     1      89.736 109.529  78.612  1.00  0.00     0.011 A 
ATOM     11  C   UNL     1      91.719 108.589  75.756  1.00  0.00    -0.007 C 
ATOM     12  C   UNL     1      89.005 109.122  79.729  1.00  0.00     0.056 A 
ATOM     13  C   UNL     1      89.635 111.284  79.983  1.00  0.00     0.099 A 
ATOM     14  C   UNL     1      90.712 111.591  74.016  1.00  0.00     0.106 C 
ATOM     15  C   UNL     1      89.517 107.366  77.575  1.00  0.00     0.009 A 
ATOM     16  C   UNL     1      88.512 107.802  79.765  1.00  0.00     0.027 A 
ATOM     17  C   UNL     1      88.778 106.945  78.681  1.00  0.00     0.003 A 
ENDROOT
BRANCH   6  18
ATOM     18  C   UNL     1      92.617 108.893  73.301  1.00  0.00     0.230 C 
ATOM     19  O   UNL     1      91.794 108.073  72.883  1.00  0.00    -0.274 OA
ATOM     20  N   UNL     1      93.359 109.688  72.412  1.00  0.00    -0.343 N 
BRANCH  20  21
ATOM     21  C   UNL     1      94.816 109.495  72.392  1.00  0.00     0.116 C 
ATOM     22  C   UNL     1      95.346 108.674  73.562  1.00  0.00     0.027 C 
ENDBRANCH  20  21
BRANCH  20  23
ATOM     23  C   UNL     1      92.709 109.923  71.118  1.00  0.00     0.116 C 
ATOM     24  C   UNL     1      91.873 111.192  71.071  1.00  0.00     0.027 C 
ENDBRANCH  20  23
ENDBRANCH   6  18
BRANCH   2  25
ATOM     25  C   UNL     1      88.343 110.380  81.870  1.00  0.00     0.230 C 
ATOM     26  O   UNL     1      87.117 110.403  81.940  1.00  0.00    -0.274 OA
BRANCH  25  27
ATOM     27  C   UNL     1      89.257 110.505  83.056  1.00  0.00     0.097 C 
ATOM     28  C   UNL     1      90.034 109.220  83.308  1.00  0.00     0.014 C 
ENDBRANCH  25  27
ENDBRANCH   2  25
TORSDOF 5
ENDMDL
MODEL 11
REMARK VINA RESULT:    -6.505      2.283      7.972
REMARK INTER + INTRA:          -8.922
REMARK INTER:                  -8.407
REMARK INTRA:                  -0.515
REMARK UNBOUND:                -0.515
REMARK SMILES CCC(=O)n1cc2c3c(cccc31)C1=C[C@@H](C(=O)N(CC)CC)CN(C)[C@@H]1C2
REMARK SMILES IDX 25 1 5 2 27 3 14 4 28 5 16 6 24 7 7 8 9 9 8 10 15 11 13 12
REMARK SMILES IDX 6 13 26 14 10 15 12 16 11 17 17 18 18 19 19 20 20 21 21 22
REMARK SMILES IDX 22 23 23 24 3 25 4 26 2 27 1 28
REMARK H PARENT
ROOT
ATOM      1  N   UNL     1      89.788 111.983  80.099  1.00  0.00    -0.298 NA
ATOM      2  N   UNL     1      91.831 109.586  74.955  1.00  0.00    -0.287 N 
ATOM      3  C   UNL     1      90.487 111.114  79.124  1.00  0.00     0.091 C 
ATOM      4  C   UNL     1      90.287 109.592  79.322  1.00  0.00    -0.026 C 
ATOM      5  C   UNL     1      90.143 111.557  77.657  1.00  0.00     0.061 C 
ATOM      6  C   UNL     1      88.570 109.952  81.091  1.00  0.00     0.116 C 
ATOM      7  C   UNL     1      88.509 111.404  80.554  1.00  0.00     0.102 C 
ATOM      8  C   UNL     1      90.824 110.636  76.692  1.00  0.00    -0.019 A 
ATOM      9  C   UNL     1      91.001 108.730  78.354  1.00  0.00    -0.011 A 
ATOM     10  C   UNL     1      91.196 109.338  77.097  1.00  0.00     0.011 A 
ATOM     11  C   UNL     1      89.439 109.077  80.231  1.00  0.00    -0.007 C 
ATOM     12  C   UNL     1      91.823 108.684  76.036  1.00  0.00     0.056 A 
ATOM     13  C   UNL     1      91.217 110.769  75.389  1.00  0.00     0.099 A 
ATOM     14  C   UNL     1      90.648 112.334  81.227  1.00  0.00     0.106 C 
ATOM     15  C   UNL     1      91.456 107.427  78.540  1.00  0.00     0.009 A 
ATOM     16  C   UNL     1      92.284 107.367  76.236  1.00  0.00     0.027 A 
ATOM     17  C   UNL     1      92.092 106.761  77.492  1.00  0.00     0.003 A 
ENDROOT
BRANCH   6  18
ATOM     18  C   UNL     1      88.754 109.911  82.631  1.00  0.00     0.230 C 
ATOM     19  O   UNL     1      87.890 110.376  83.381  1.00  0.00    -0.274 OA
ATOM     20  N   UNL     1      89.811 109.137  83.139  1.00  0.00    -0.343 N 
BRANCH  20  21
ATOM     21  C   UNL     1      91.170 109.676  82.992  1.00  0.00     0.116 C 
ATOM     22  C   UNL     1      92.219 108.622  82.656  1.00  0.00     0.027 C 
ENDBRANCH  20  21
BRANCH  20  23
ATOM     23  C   UNL     1      89.509 108.447  84.398  1.00  0.00     0.116 C 
ATOM     24  C   UNL     1      90.389 108.877  85.561  1.00  0.00     0.027 C 
ENDBRANCH  20  23
ENDBRANCH   6  18
BRANCH   2  25
ATOM     25  C   UNL     1      92.330 109.451  73.636  1.00  0.00     0.230 C 
ATOM     26  O   UNL     1      92.231 108.361  73.078  1.00  0.00    -0.274 OA
BRANCH  25  27
ATOM     27  C   UNL     1      92.954 110.665  73.008  1.00  0.00     0.097 C 
ATOM     28  C   UNL     1      92.171 111.137  71.790  1.00  0.00     0.014 C 
ENDBRANCH  25  27
ENDBRANCH   2  25
TORSDOF 5
ENDMDL
MODEL 12
REMARK VINA RESULT:    -6.497      1.965      8.257
REMARK INTER + INTRA:          -8.911
REMARK INTER:                  -8.351
REMARK INTRA:                  -0.560
REMARK UNBOUND:                -0.515
REMARK SMILES CCC(=O)n1cc2c3c(cccc31)C1=C[C@@H](C(=O)N(CC)CC)CN(C)[C@@H]1C2
REMARK SMILES IDX 25 1 5 2 27 3 14 4 28 5 16 6 24 7 7 8 9 9 8 10 15 11 13 12
REMARK SMILES IDX 6 13 26 14 10 15 12 16 11 17 17 18 18 19 19 20 20 21 21 22
REMARK SMILES IDX 22 23 23 24 3 25 4 26 2 27 1 28
REMARK H PARENT
ROOT
ATOM      1  N   UNL     1      88.669 106.883  79.113  1.00  0.00    -0.298 NA
ATOM      2  N   UNL     1      91.250 105.816  73.767  1.00  0.00    -0.287 N 
ATOM      3  C   UNL     1      89.342 107.067  77.806  1.00  0.00     0.091 C 
ATOM      4  C   UNL     1      90.612 107.952  77.828  1.00  0.00    -0.026 C 
ATOM      5  C   UNL     1      89.618 105.674  77.135  1.00  0.00     0.061 C 
ATOM      6  C   UNL     1      90.599 108.075  80.316  1.00  0.00     0.116 C 
ATOM      7  C   UNL     1      89.621 106.876  80.241  1.00  0.00     0.102 C 
ATOM      8  C   UNL     1      90.338 105.885  75.840  1.00  0.00    -0.019 A 
ATOM      9  C   UNL     1      91.271 108.143  76.516  1.00  0.00    -0.011 A 
ATOM     10  C   UNL     1      91.081 107.064  75.629  1.00  0.00     0.011 A 
ATOM     11  C   UNL     1      91.157 108.423  78.964  1.00  0.00    -0.007 C 
ATOM     12  C   UNL     1      91.642 107.035  74.351  1.00  0.00     0.056 A 
ATOM     13  C   UNL     1      90.452 105.139  74.699  1.00  0.00     0.099 A 
ATOM     14  C   UNL     1      87.604 107.863  79.318  1.00  0.00     0.106 C 
ATOM     15  C   UNL     1      92.046 109.221  76.096  1.00  0.00     0.009 A 
ATOM     16  C   UNL     1      92.422 108.133  73.935  1.00  0.00     0.027 A 
ATOM     17  C   UNL     1      92.608 109.211  74.820  1.00  0.00     0.003 A 
ENDROOT
BRANCH   6  18
ATOM     18  C   UNL     1      90.052 109.213  81.218  1.00  0.00     0.230 C 
ATOM     19  O   UNL     1      89.769 108.998  82.401  1.00  0.00    -0.274 OA
ATOM     20  N   UNL     1      90.105 110.523  80.715  1.00  0.00    -0.343 N 
BRANCH  20  21
ATOM     21  C   UNL     1      89.132 110.883  79.674  1.00  0.00     0.116 C 
ATOM     22  C   UNL     1      89.764 111.465  78.413  1.00  0.00     0.027 C 
ENDBRANCH  20  21
BRANCH  20  23
ATOM     23  C   UNL     1      90.403 111.549  81.720  1.00  0.00     0.116 C 
ATOM     24  C   UNL     1      89.228 112.463  82.033  1.00  0.00     0.027 C 
ENDBRANCH  20  23
ENDBRANCH   6  18
BRANCH   2  25
ATOM     25  C   UNL     1      91.535 105.262  72.494  1.00  0.00     0.230 C 
ATOM     26  O   UNL     1      91.816 106.022  71.571  1.00  0.00    -0.274 OA
BRANCH  25  27
ATOM     27  C   UNL     1      91.469 103.766  72.364  1.00  0.00     0.097 C 
ATOM     28  C   UNL     1      90.454 103.334  71.316  1.00  0.00     0.014 C 
ENDBRANCH  25  27
ENDBRANCH   2  25
TORSDOF 5
ENDMDL
MODEL 13
REMARK VINA RESULT:    -5.955      1.830      2.504
REMARK INTER + INTRA:          -8.211
REMARK INTER:                  -7.606
REMARK INTRA:                  -0.605
REMARK UNBOUND:                -0.515
REMARK SMILES CCC(=O)n1cc2c3c(cccc31)C1=C[C@@H](C(=O)N(CC)CC)CN(C)[C@@H]1C2
REMARK SMILES IDX 25 1 5 2 27 3 14 4 28 5 16 6 24 7 7 8 9 9 8 10 15 11 13 12
REMARK SMILES IDX 6 13 26 14 10 15 12 16 11 17 17 18 18 19 19 20 20 21 21 22
REMARK SMILES IDX 22 23 23 24 3 25 4 26 2 27 1 28
REMARK H PARENT
ROOT
ATOM      1  N   UNL     1      90.262 109.657  76.279  1.00  0.00    -0.298 NA
ATOM      2  N   UNL     1      89.146 111.165  82.011  1.00  0.00    -0.287 N 
ATOM      3  C   UNL     1      89.987 109.582  77.732  1.00  0.00     0.091 C 
ATOM      4  C   UNL     1      90.935 108.667  78.545  1.00  0.00    -0.026 C 
ATOM      5  C   UNL     1      89.908 111.025  78.347  1.00  0.00     0.061 C 
ATOM      6  C   UNL     1      92.424 108.306  76.580  1.00  0.00     0.116 C 
ATOM      7  C   UNL     1      91.699 109.531  75.970  1.00  0.00     0.102 C 
ATOM      8  C   UNL     1      89.676 110.921  79.822  1.00  0.00    -0.019 A 
ATOM      9  C   UNL     1      90.646 108.585  79.994  1.00  0.00    -0.011 A 
ATOM     10  C   UNL     1      90.043 109.749  80.514  1.00  0.00     0.011 A 
ATOM     11  C   UNL     1      92.018 108.075  78.009  1.00  0.00    -0.007 C 
ATOM     12  C   UNL     1      89.715 109.885  81.863  1.00  0.00     0.056 A 
ATOM     13  C   UNL     1      89.133 111.770  80.747  1.00  0.00     0.099 A 
ATOM     14  C   UNL     1      89.466 108.689  75.526  1.00  0.00     0.106 C 
ATOM     15  C   UNL     1      90.919 107.533  80.864  1.00  0.00     0.009 A 
ATOM     16  C   UNL     1      89.993 108.813  82.735  1.00  0.00     0.027 A 
ATOM     17  C   UNL     1      90.591 107.650  82.215  1.00  0.00     0.003 A 
ENDROOT
BRANCH   6  18
ATOM     18  C   UNL     1      92.449 107.101  75.603  1.00  0.00     0.230 C 
ATOM     19  O   UNL     1      93.148 107.130  74.585  1.00  0.00    -0.274 OA
ATOM     20  N   UNL     1      91.836 105.909  76.024  1.00  0.00    -0.343 N 
BRANCH  20  21
ATOM     21  C   UNL     1      90.367 105.874  76.029  1.00  0.00     0.116 C 
ATOM     22  C   UNL     1      89.766 105.335  77.323  1.00  0.00     0.027 C 
ENDBRANCH  20  21
BRANCH  20  23
ATOM     23  C   UNL     1      92.522 104.687  75.593  1.00  0.00     0.116 C 
ATOM     24  C   UNL     1      93.290 103.987  76.703  1.00  0.00     0.027 C 
ENDBRANCH  20  23
ENDBRANCH   6  18
BRANCH   2  25
ATOM     25  C   UNL     1      88.643 111.831  83.156  1.00  0.00     0.230 C 
ATOM     26  O   UNL     1      88.986 112.993  83.359  1.00  0.00    -0.274 OA
BRANCH  25  27
ATOM     27  C   UNL     1      87.718 111.056  84.052  1.00  0.00     0.097 C 
ATOM     28  C   UNL     1      86.566 110.436  83.273  1.00  0.00     0.014 C 
ENDBRANCH  25  27
ENDBRANCH   2  25
TORSDOF 5
ENDMDL
