MODEL 1
REMARK VINA RESULT:   -10.032      0.000      0.000
REMARK INTER + INTRA:         -13.637
REMARK INTER:                 -12.965
REMARK INTRA:                  -0.672
REMARK UNBOUND:                -0.672
REMARK SMILES CCC(=O)n1cc2c3c(cccc31)C1=C[C@@H](C(=O)N(CC)CC)CN(C)[C@@H]1C2
REMARK SMILES IDX 25 1 5 2 27 3 14 4 28 5 16 6 24 7 7 8 9 9 8 10 15 11 13 12
REMARK SMILES IDX 6 13 26 14 10 15 12 16 11 17 17 18 18 19 19 20 20 21 21 22
REMARK SMILES IDX 22 23 23 24 3 25 4 26 2 27 1 28
REMARK H PARENT
ROOT
ATOM      1  N   UNL     1     -26.027 -16.717 148.045  1.00  0.00    -0.298 NA
ATOM      2  N   UNL     1     -31.383 -15.032 150.245  1.00  0.00    -0.287 N 
ATOM      3  C   UNL     1     -27.199 -15.904 148.442  1.00  0.00     0.091 C 
ATOM      4  C   UNL     1     -27.775 -14.980 147.341  1.00  0.00    -0.026 C 
ATOM      5  C   UNL     1     -28.310 -16.820 149.068  1.00  0.00     0.061 C 
ATOM      6  C   UNL     1     -26.282 -15.962 145.604  1.00  0.00     0.116 C 
ATOM      7  C   UNL     1     -26.068 -17.109 146.623  1.00  0.00     0.102 C 
ATOM      8  C   UNL     1     -29.500 -15.983 149.419  1.00  0.00    -0.019 A 
ATOM      9  C   UNL     1     -28.937 -14.159 147.750  1.00  0.00    -0.011 A 
ATOM     10  C   UNL     1     -29.717 -14.754 148.762  1.00  0.00     0.011 A 
ATOM     11  C   UNL     1     -27.336 -14.995 146.069  1.00  0.00    -0.007 C 
ATOM     12  C   UNL     1     -30.872 -14.156 149.268  1.00  0.00     0.056 A 
ATOM     13  C   UNL     1     -30.522 -16.135 150.315  1.00  0.00     0.099 A 
ATOM     14  C   UNL     1     -24.768 -16.054 148.380  1.00  0.00     0.106 C 
ATOM     15  C   UNL     1     -29.336 -12.926 147.241  1.00  0.00     0.009 A 
ATOM     16  C   UNL     1     -31.265 -12.906 148.749  1.00  0.00     0.027 A 
ATOM     17  C   UNL     1     -30.484 -12.311 147.741  1.00  0.00     0.003 A 
ENDROOT
BRANCH   6  18
ATOM     18  C   UNL     1     -24.938 -15.404 145.067  1.00  0.00     0.230 C 
ATOM     19  O   UNL     1     -24.129 -16.147 144.502  1.00  0.00    -0.274 OA
ATOM     20  N   UNL     1     -24.775 -14.009 145.044  1.00  0.00    -0.343 N 
BRANCH  20  21
ATOM     21  C   UNL     1     -24.538 -13.339 146.330  1.00  0.00     0.116 C 
ATOM     22  C   UNL     1     -25.273 -12.011 146.479  1.00  0.00     0.027 C 
ENDBRANCH  20  21
BRANCH  20  23
ATOM     23  C   UNL     1     -24.024 -13.503 143.891  1.00  0.00     0.116 C 
ATOM     24  C   UNL     1     -22.698 -12.854 144.255  1.00  0.00     0.027 C 
ENDBRANCH  20  23
ENDBRANCH   6  18
BRANCH   2  25
ATOM     25  C   UNL     1     -32.533 -14.936 151.068  1.00  0.00     0.230 C 
ATOM     26  O   UNL     1     -32.652 -13.957 151.800  1.00  0.00    -0.274 OA
BRANCH  25  27
ATOM     27  C   UNL     1     -33.534 -16.054 150.986  1.00  0.00     0.097 C 
ATOM     28  C   UNL     1     -34.544 -15.992 152.122  1.00  0.00     0.014 C 
ENDBRANCH  25  27
ENDBRANCH   2  25
TORSDOF 5
ENDMDL
MODEL 2
REMARK VINA RESULT:    -9.972      4.660      8.124
REMARK INTER + INTRA:         -13.560
REMARK INTER:                 -12.671
REMARK INTRA:                  -0.889
REMARK UNBOUND:                -0.672
REMARK SMILES CCC(=O)n1cc2c3c(cccc31)C1=C[C@@H](C(=O)N(CC)CC)CN(C)[C@@H]1C2
REMARK SMILES IDX 25 1 5 2 27 3 14 4 28 5 16 6 24 7 7 8 9 9 8 10 15 11 13 12
REMARK SMILES IDX 6 13 26 14 10 15 12 16 11 17 17 18 18 19 19 20 20 21 21 22
REMARK SMILES IDX 22 23 23 24 3 25 4 26 2 27 1 28
REMARK H PARENT
ROOT
ATOM      1  N   UNL     1     -26.008 -12.136 146.113  1.00  0.00    -0.298 NA
ATOM      2  N   UNL     1     -28.434  -9.578 141.220  1.00  0.00    -0.287 N 
ATOM      3  C   UNL     1     -26.323 -11.790 144.708  1.00  0.00     0.091 C 
ATOM      4  C   UNL     1     -26.623 -12.989 143.776  1.00  0.00    -0.026 C 
ATOM      5  C   UNL     1     -27.466 -10.715 144.654  1.00  0.00     0.061 C 
ATOM      6  C   UNL     1     -26.607 -14.595 145.681  1.00  0.00     0.116 C 
ATOM      7  C   UNL     1     -26.733 -13.335 146.574  1.00  0.00     0.102 C 
ATOM      8  C   UNL     1     -27.797 -10.417 143.225  1.00  0.00    -0.019 A 
ATOM      9  C   UNL     1     -26.922 -12.637 142.369  1.00  0.00    -0.011 A 
ATOM     10  C   UNL     1     -27.506 -11.363 142.221  1.00  0.00     0.011 A 
ATOM     11  C   UNL     1     -26.724 -14.255 144.221  1.00  0.00    -0.007 C 
ATOM     12  C   UNL     1     -27.888 -10.853 140.980  1.00  0.00     0.056 A 
ATOM     13  C   UNL     1     -28.360  -9.339 142.599  1.00  0.00     0.099 A 
ATOM     14  C   UNL     1     -24.569 -12.264 146.331  1.00  0.00     0.106 C 
ATOM     15  C   UNL     1     -26.717 -13.412 141.231  1.00  0.00     0.009 A 
ATOM     16  C   UNL     1     -27.674 -11.644 139.833  1.00  0.00     0.027 A 
ATOM     17  C   UNL     1     -27.088 -12.915 139.981  1.00  0.00     0.003 A 
ENDROOT
BRANCH   6  18
ATOM     18  C   UNL     1     -25.453 -15.521 146.146  1.00  0.00     0.230 C 
ATOM     19  O   UNL     1     -24.471 -15.715 145.423  1.00  0.00    -0.274 OA
ATOM     20  N   UNL     1     -25.457 -15.943 147.486  1.00  0.00    -0.343 N 
BRANCH  20  21
ATOM     21  C   UNL     1     -26.434 -16.973 147.864  1.00  0.00     0.116 C 
ATOM     22  C   UNL     1     -27.536 -16.469 148.790  1.00  0.00     0.027 C 
ENDBRANCH  20  21
BRANCH  20  23
ATOM     23  C   UNL     1     -24.127 -16.043 148.097  1.00  0.00     0.116 C 
ATOM     24  C   UNL     1     -23.717 -17.463 148.451  1.00  0.00     0.027 C 
ENDBRANCH  20  23
ENDBRANCH   6  18
BRANCH   2  25
ATOM     25  C   UNL     1     -28.983  -8.620 140.331  1.00  0.00     0.230 C 
ATOM     26  O   UNL     1     -30.074  -8.124 140.600  1.00  0.00    -0.274 OA
BRANCH  25  27
ATOM     27  C   UNL     1     -28.180  -8.278 139.107  1.00  0.00     0.097 C 
ATOM     28  C   UNL     1     -28.965  -8.533 137.828  1.00  0.00     0.014 C 
ENDBRANCH  25  27
ENDBRANCH   2  25
TORSDOF 5
ENDMDL
MODEL 3
REMARK VINA RESULT:    -9.849      4.866      7.507
REMARK INTER + INTRA:         -13.401
REMARK INTER:                 -12.915
REMARK INTRA:                  -0.485
REMARK UNBOUND:                -0.672
REMARK SMILES CCC(=O)n1cc2c3c(cccc31)C1=C[C@@H](C(=O)N(CC)CC)CN(C)[C@@H]1C2
REMARK SMILES IDX 25 1 5 2 27 3 14 4 28 5 16 6 24 7 7 8 9 9 8 10 15 11 13 12
REMARK SMILES IDX 6 13 26 14 10 15 12 16 11 17 17 18 18 19 19 20 20 21 21 22
REMARK SMILES IDX 22 23 23 24 3 25 4 26 2 27 1 28
REMARK H PARENT
ROOT
ATOM      1  N   UNL     1     -25.573 -12.654 146.219  1.00  0.00    -0.298 NA
ATOM      2  N   UNL     1     -28.646  -9.607 142.018  1.00  0.00    -0.287 N 
ATOM      3  C   UNL     1     -26.055 -12.137 144.918  1.00  0.00     0.091 C 
ATOM      4  C   UNL     1     -26.385 -13.210 143.852  1.00  0.00    -0.026 C 
ATOM      5  C   UNL     1     -27.256 -11.148 145.136  1.00  0.00     0.061 C 
ATOM      6  C   UNL     1     -26.077 -15.064 145.488  1.00  0.00     0.116 C 
ATOM      7  C   UNL     1     -26.177 -13.956 146.566  1.00  0.00     0.102 C 
ATOM      8  C   UNL     1     -27.753 -10.675 143.805  1.00  0.00    -0.019 A 
ATOM      9  C   UNL     1     -26.852 -12.684 142.549  1.00  0.00    -0.011 A 
ATOM     10  C   UNL     1     -27.518 -11.447 142.649  1.00  0.00     0.011 A 
ATOM     11  C   UNL     1     -26.367 -14.530 144.113  1.00  0.00    -0.007 C 
ATOM     12  C   UNL     1     -28.059 -10.794 141.540  1.00  0.00     0.056 A 
ATOM     13  C   UNL     1     -28.439  -9.562 143.403  1.00  0.00     0.099 A 
ATOM     14  C   UNL     1     -24.114 -12.711 146.274  1.00  0.00     0.106 C 
ATOM     15  C   UNL     1     -26.727 -13.274 141.294  1.00  0.00     0.009 A 
ATOM     16  C   UNL     1     -27.925 -11.398 140.273  1.00  0.00     0.027 A 
ATOM     17  C   UNL     1     -27.256 -12.632 140.174  1.00  0.00     0.003 A 
ENDROOT
BRANCH   6  18
ATOM     18  C   UNL     1     -24.829 -15.963 145.696  1.00  0.00     0.230 C 
ATOM     19  O   UNL     1     -23.774 -15.723 145.101  1.00  0.00    -0.274 OA
ATOM     20  N   UNL     1     -24.873 -16.906 146.736  1.00  0.00    -0.343 N 
BRANCH  20  21
ATOM     21  C   UNL     1     -25.700 -18.102 146.525  1.00  0.00     0.116 C 
ATOM     22  C   UNL     1     -24.897 -19.356 146.192  1.00  0.00     0.027 C 
ENDBRANCH  20  21
BRANCH  20  23
ATOM     23  C   UNL     1     -23.598 -17.101 147.434  1.00  0.00     0.116 C 
ATOM     24  C   UNL     1     -23.728 -17.165 148.948  1.00  0.00     0.027 C 
ENDBRANCH  20  23
ENDBRANCH   6  18
BRANCH   2  25
ATOM     25  C   UNL     1     -29.339  -8.575 141.339  1.00  0.00     0.230 C 
ATOM     26  O   UNL     1     -28.748  -7.944 140.466  1.00  0.00    -0.274 OA
BRANCH  25  27
ATOM     27  C   UNL     1     -30.765  -8.322 141.742  1.00  0.00     0.097 C 
ATOM     28  C   UNL     1     -30.856  -7.384 142.938  1.00  0.00     0.014 C 
ENDBRANCH  25  27
ENDBRANCH   2  25
TORSDOF 5
ENDMDL
MODEL 4
REMARK VINA RESULT:    -9.772      4.799      8.123
REMARK INTER + INTRA:         -13.300
REMARK INTER:                 -13.106
REMARK INTRA:                  -0.194
REMARK UNBOUND:                -0.672
REMARK SMILES CCC(=O)n1cc2c3c(cccc31)C1=C[C@@H](C(=O)N(CC)CC)CN(C)[C@@H]1C2
REMARK SMILES IDX 25 1 5 2 27 3 14 4 28 5 16 6 24 7 7 8 9 9 8 10 15 11 13 12
REMARK SMILES IDX 6 13 26 14 10 15 12 16 11 17 17 18 18 19 19 20 20 21 21 22
REMARK SMILES IDX 22 23 23 24 3 25 4 26 2 27 1 28
REMARK H PARENT
ROOT
ATOM      1  N   UNL     1     -26.313 -11.824 146.268  1.00  0.00    -0.298 NA
ATOM      2  N   UNL     1     -28.485  -9.562 141.116  1.00  0.00    -0.287 N 
ATOM      3  C   UNL     1     -26.551 -11.557 144.831  1.00  0.00     0.091 C 
ATOM      4  C   UNL     1     -26.784 -12.808 143.949  1.00  0.00    -0.026 C 
ATOM      5  C   UNL     1     -27.701 -10.502 144.655  1.00  0.00     0.061 C 
ATOM      6  C   UNL     1     -26.859 -14.310 145.935  1.00  0.00     0.116 C 
ATOM      7  C   UNL     1     -27.050 -13.007 146.751  1.00  0.00     0.102 C 
ATOM      8  C   UNL     1     -27.953 -10.285 143.196  1.00  0.00    -0.019 A 
ATOM      9  C   UNL     1     -27.007 -12.535 142.511  1.00  0.00    -0.011 A 
ATOM     10  C   UNL     1     -27.595 -11.279 142.262  1.00  0.00     0.011 A 
ATOM     11  C   UNL     1     -26.896 -14.050 144.455  1.00  0.00    -0.007 C 
ATOM     12  C   UNL     1     -27.912 -10.840 140.976  1.00  0.00     0.056 A 
ATOM     13  C   UNL     1     -28.492  -9.250 142.482  1.00  0.00     0.099 A 
ATOM     14  C   UNL     1     -24.887 -11.921 146.573  1.00  0.00     0.106 C 
ATOM     15  C   UNL     1     -26.730 -13.366 141.429  1.00  0.00     0.009 A 
ATOM     16  C   UNL     1     -27.625 -11.688 139.886  1.00  0.00     0.027 A 
ATOM     17  C   UNL     1     -27.034 -12.941 140.136  1.00  0.00     0.003 A 
ENDROOT
BRANCH   6  18
ATOM     18  C   UNL     1     -25.723 -15.195 146.513  1.00  0.00     0.230 C 
ATOM     19  O   UNL     1     -25.335 -15.041 147.676  1.00  0.00    -0.274 OA
ATOM     20  N   UNL     1     -25.316 -16.306 145.757  1.00  0.00    -0.343 N 
BRANCH  20  21
ATOM     21  C   UNL     1     -24.502 -16.045 144.562  1.00  0.00     0.116 C 
ATOM     22  C   UNL     1     -23.692 -14.755 144.637  1.00  0.00     0.027 C 
ENDBRANCH  20  21
BRANCH  20  23
ATOM     23  C   UNL     1     -24.956 -17.485 146.553  1.00  0.00     0.116 C 
ATOM     24  C   UNL     1     -23.490 -17.873 146.449  1.00  0.00     0.027 C 
ENDBRANCH  20  23
ENDBRANCH   6  18
BRANCH   2  25
ATOM     25  C   UNL     1     -28.992  -8.660 140.148  1.00  0.00     0.230 C 
ATOM     26  O   UNL     1     -30.081  -8.130 140.351  1.00  0.00    -0.274 OA
BRANCH  25  27
ATOM     27  C   UNL     1     -28.152  -8.418 138.926  1.00  0.00     0.097 C 
ATOM     28  C   UNL     1     -28.980  -8.477 137.650  1.00  0.00     0.014 C 
ENDBRANCH  25  27
ENDBRANCH   2  25
TORSDOF 5
ENDMDL
MODEL 5
REMARK VINA RESULT:    -9.173      2.892      4.169
REMARK INTER + INTRA:         -12.527
REMARK INTER:                 -11.991
REMARK INTRA:                  -0.535
REMARK UNBOUND:                -0.672
REMARK SMILES CCC(=O)n1cc2c3c(cccc31)C1=C[C@@H](C(=O)N(CC)CC)CN(C)[C@@H]1C2
REMARK SMILES IDX 25 1 5 2 27 3 14 4 28 5 16 6 24 7 7 8 9 9 8 10 15 11 13 12
REMARK SMILES IDX 6 13 26 14 10 15 12 16 11 17 17 18 18 19 19 20 20 21 21 22
REMARK SMILES IDX 22 23 23 24 3 25 4 26 2 27 1 28
REMARK H PARENT
ROOT
ATOM      1  N   UNL     1     -24.415 -14.569 146.391  1.00  0.00    -0.298 NA
ATOM      2  N   UNL     1     -27.046 -17.788 150.759  1.00  0.00    -0.287 N 
ATOM      3  C   UNL     1     -25.358 -15.026 147.436  1.00  0.00     0.091 C 
ATOM      4  C   UNL     1     -26.850 -15.057 147.023  1.00  0.00    -0.026 C 
ATOM      5  C   UNL     1     -24.892 -16.405 148.026  1.00  0.00     0.061 C 
ATOM      6  C   UNL     1     -26.298 -14.548 144.647  1.00  0.00     0.116 C 
ATOM      7  C   UNL     1     -24.852 -14.945 145.033  1.00  0.00     0.102 C 
ATOM      8  C   UNL     1     -25.885 -16.866 149.046  1.00  0.00    -0.019 A 
ATOM      9  C   UNL     1     -27.789 -15.501 148.077  1.00  0.00    -0.011 A 
ATOM     10  C   UNL     1     -27.213 -16.394 149.004  1.00  0.00     0.011 A 
ATOM     11  C   UNL     1     -27.266 -14.815 145.766  1.00  0.00    -0.007 C 
ATOM     12  C   UNL     1     -27.936 -16.951 150.059  1.00  0.00     0.056 A 
ATOM     13  C   UNL     1     -25.802 -17.712 150.118  1.00  0.00     0.099 A 
ATOM     14  C   UNL     1     -24.149 -13.134 146.488  1.00  0.00     0.106 C 
ATOM     15  C   UNL     1     -29.131 -15.162 148.227  1.00  0.00     0.009 A 
ATOM     16  C   UNL     1     -29.293 -16.598 150.204  1.00  0.00     0.027 A 
ATOM     17  C   UNL     1     -29.867 -15.704 149.281  1.00  0.00     0.003 A 
ENDROOT
BRANCH   6  18
ATOM     18  C   UNL     1     -26.349 -13.177 143.922  1.00  0.00     0.230 C 
ATOM     19  O   UNL     1     -25.707 -12.989 142.885  1.00  0.00    -0.274 OA
ATOM     20  N   UNL     1     -27.310 -12.248 144.354  1.00  0.00    -0.343 N 
BRANCH  20  21
ATOM     21  C   UNL     1     -27.058 -11.563 145.630  1.00  0.00     0.116 C 
ATOM     22  C   UNL     1     -26.087 -10.393 145.521  1.00  0.00     0.027 C 
ENDBRANCH  20  21
BRANCH  20  23
ATOM     23  C   UNL     1     -27.904 -11.443 143.282  1.00  0.00     0.116 C 
ATOM     24  C   UNL     1     -29.130 -10.652 143.712  1.00  0.00     0.027 C 
ENDBRANCH  20  23
ENDBRANCH   6  18
BRANCH   2  25
ATOM     25  C   UNL     1     -27.242 -18.602 151.902  1.00  0.00     0.230 C 
ATOM     26  O   UNL     1     -26.961 -19.796 151.831  1.00  0.00    -0.274 OA
BRANCH  25  27
ATOM     27  C   UNL     1     -27.789 -17.937 153.134  1.00  0.00     0.097 C 
ATOM     28  C   UNL     1     -29.232 -18.340 153.401  1.00  0.00     0.014 C 
ENDBRANCH  25  27
ENDBRANCH   2  25
TORSDOF 5
ENDMDL
MODEL 6
REMARK VINA RESULT:    -8.903      2.187      3.877
REMARK INTER + INTRA:         -12.178
REMARK INTER:                 -12.135
REMARK INTRA:                  -0.043
REMARK UNBOUND:                -0.672
REMARK SMILES CCC(=O)n1cc2c3c(cccc31)C1=C[C@@H](C(=O)N(CC)CC)CN(C)[C@@H]1C2
REMARK SMILES IDX 25 1 5 2 27 3 14 4 28 5 16 6 24 7 7 8 9 9 8 10 15 11 13 12
REMARK SMILES IDX 6 13 26 14 10 15 12 16 11 17 17 18 18 19 19 20 20 21 21 22
REMARK SMILES IDX 22 23 23 24 3 25 4 26 2 27 1 28
REMARK H PARENT
ROOT
ATOM      1  N   UNL     1     -27.811 -15.370 146.272  1.00  0.00    -0.298 NA
ATOM      2  N   UNL     1     -32.101 -13.736 150.183  1.00  0.00    -0.287 N 
ATOM      3  C   UNL     1     -28.821 -15.397 147.355  1.00  0.00     0.091 C 
ATOM      4  C   UNL     1     -28.344 -16.002 148.698  1.00  0.00    -0.026 C 
ATOM      5  C   UNL     1     -29.447 -13.970 147.552  1.00  0.00     0.061 C 
ATOM      6  C   UNL     1     -25.988 -16.152 147.902  1.00  0.00     0.116 C 
ATOM      7  C   UNL     1     -26.441 -15.180 146.784  1.00  0.00     0.102 C 
ATOM      8  C   UNL     1     -30.429 -14.014 148.680  1.00  0.00    -0.019 A 
ATOM      9  C   UNL     1     -29.363 -16.039 149.771  1.00  0.00    -0.011 A 
ATOM     10  C   UNL     1     -30.324 -15.013 149.670  1.00  0.00     0.011 A 
ATOM     11  C   UNL     1     -27.069 -16.363 148.926  1.00  0.00    -0.007 C 
ATOM     12  C   UNL     1     -31.354 -14.855 150.598  1.00  0.00     0.056 A 
ATOM     13  C   UNL     1     -31.514 -13.248 149.008  1.00  0.00     0.099 A 
ATOM     14  C   UNL     1     -27.903 -16.550 145.415  1.00  0.00     0.106 C 
ATOM     15  C   UNL     1     -29.451 -16.930 150.838  1.00  0.00     0.009 A 
ATOM     16  C   UNL     1     -31.436 -15.764 151.672  1.00  0.00     0.027 A 
ATOM     17  C   UNL     1     -30.479 -16.790 151.771  1.00  0.00     0.003 A 
ENDROOT
BRANCH   6  18
ATOM     18  C   UNL     1     -25.246 -17.388 147.329  1.00  0.00     0.230 C 
ATOM     19  O   UNL     1     -25.801 -18.137 146.519  1.00  0.00    -0.274 OA
ATOM     20  N   UNL     1     -23.869 -17.496 147.584  1.00  0.00    -0.343 N 
BRANCH  20  21
ATOM     21  C   UNL     1     -23.465 -17.884 148.943  1.00  0.00     0.116 C 
ATOM     22  C   UNL     1     -22.635 -16.829 149.666  1.00  0.00     0.027 C 
ENDBRANCH  20  21
BRANCH  20  23
ATOM     23  C   UNL     1     -23.087 -18.060 146.479  1.00  0.00     0.116 C 
ATOM     24  C   UNL     1     -23.032 -19.580 146.477  1.00  0.00     0.027 C 
ENDBRANCH  20  23
ENDBRANCH   6  18
BRANCH   2  25
ATOM     25  C   UNL     1     -33.245 -13.122 150.750  1.00  0.00     0.230 C 
ATOM     26  O   UNL     1     -33.992 -13.800 151.451  1.00  0.00    -0.274 OA
BRANCH  25  27
ATOM     27  C   UNL     1     -33.466 -11.666 150.448  1.00  0.00     0.097 C 
ATOM     28  C   UNL     1     -32.724 -10.767 151.427  1.00  0.00     0.014 C 
ENDBRANCH  25  27
ENDBRANCH   2  25
TORSDOF 5
ENDMDL
MODEL 7
REMARK VINA RESULT:    -8.754      1.316      1.806
REMARK INTER + INTRA:         -11.984
REMARK INTER:                 -12.101
REMARK INTRA:                   0.117
REMARK UNBOUND:                -0.672
REMARK SMILES CCC(=O)n1cc2c3c(cccc31)C1=C[C@@H](C(=O)N(CC)CC)CN(C)[C@@H]1C2
REMARK SMILES IDX 25 1 5 2 27 3 14 4 28 5 16 6 24 7 7 8 9 9 8 10 15 11 13 12
REMARK SMILES IDX 6 13 26 14 10 15 12 16 11 17 17 18 18 19 19 20 20 21 21 22
REMARK SMILES IDX 22 23 23 24 3 25 4 26 2 27 1 28
REMARK H PARENT
ROOT
ATOM      1  N   UNL     1     -26.578 -16.222 147.834  1.00  0.00    -0.298 NA
ATOM      2  N   UNL     1     -31.640 -15.834 151.089  1.00  0.00    -0.287 N 
ATOM      3  C   UNL     1     -27.769 -15.693 148.538  1.00  0.00     0.091 C 
ATOM      4  C   UNL     1     -28.668 -14.744 147.709  1.00  0.00    -0.026 C 
ATOM      5  C   UNL     1     -28.596 -16.869 149.169  1.00  0.00     0.061 C 
ATOM      6  C   UNL     1     -27.383 -15.197 145.622  1.00  0.00     0.116 C 
ATOM      7  C   UNL     1     -26.817 -16.416 146.391  1.00  0.00     0.102 C 
ATOM      8  C   UNL     1     -29.816 -16.313 149.834  1.00  0.00    -0.019 A 
ATOM      9  C   UNL     1     -29.848 -14.207 148.423  1.00  0.00    -0.011 A 
ATOM     10  C   UNL     1     -30.332 -15.064 149.431  1.00  0.00     0.011 A 
ATOM     11  C   UNL     1     -28.470 -14.507 146.399  1.00  0.00    -0.007 C 
ATOM     12  C   UNL     1     -31.453 -14.756 150.204  1.00  0.00     0.056 A 
ATOM     13  C   UNL     1     -30.623 -16.766 150.841  1.00  0.00     0.099 A 
ATOM     14  C   UNL     1     -25.395 -15.398 148.074  1.00  0.00     0.106 C 
ATOM     15  C   UNL     1     -30.515 -13.006 148.194  1.00  0.00     0.009 A 
ATOM     16  C   UNL     1     -32.119 -13.536 149.966  1.00  0.00     0.027 A 
ATOM     17  C   UNL     1     -31.633 -12.680 148.961  1.00  0.00     0.003 A 
ENDROOT
BRANCH   6  18
ATOM     18  C   UNL     1     -26.259 -14.341 144.982  1.00  0.00     0.230 C 
ATOM     19  O   UNL     1     -26.508 -13.231 144.502  1.00  0.00    -0.274 OA
ATOM     20  N   UNL     1     -24.933 -14.766 145.168  1.00  0.00    -0.343 N 
BRANCH  20  21
ATOM     21  C   UNL     1     -24.485 -15.931 144.394  1.00  0.00     0.116 C 
ATOM     22  C   UNL     1     -23.705 -16.954 145.213  1.00  0.00     0.027 C 
ENDBRANCH  20  21
BRANCH  20  23
ATOM     23  C   UNL     1     -23.964 -13.678 145.339  1.00  0.00     0.116 C 
ATOM     24  C   UNL     1     -23.097 -13.427 144.115  1.00  0.00     0.027 C 
ENDBRANCH  20  23
ENDBRANCH   6  18
BRANCH   2  25
ATOM     25  C   UNL     1     -32.623 -16.058 152.086  1.00  0.00     0.230 C 
ATOM     26  O   UNL     1     -32.274 -16.071 153.263  1.00  0.00    -0.274 OA
BRANCH  25  27
ATOM     27  C   UNL     1     -34.037 -16.267 151.623  1.00  0.00     0.097 C 
ATOM     28  C   UNL     1     -35.020 -15.408 152.405  1.00  0.00     0.014 C 
ENDBRANCH  25  27
ENDBRANCH   2  25
TORSDOF 5
ENDMDL
MODEL 8
REMARK VINA RESULT:    -8.698      4.160      6.916
REMARK INTER + INTRA:         -11.913
REMARK INTER:                 -11.075
REMARK INTRA:                  -0.838
REMARK UNBOUND:                -0.672
REMARK SMILES CCC(=O)n1cc2c3c(cccc31)C1=C[C@@H](C(=O)N(CC)CC)CN(C)[C@@H]1C2
REMARK SMILES IDX 25 1 5 2 27 3 14 4 28 5 16 6 24 7 7 8 9 9 8 10 15 11 13 12
REMARK SMILES IDX 6 13 26 14 10 15 12 16 11 17 17 18 18 19 19 20 20 21 21 22
REMARK SMILES IDX 22 23 23 24 3 25 4 26 2 27 1 28
REMARK H PARENT
ROOT
ATOM      1  N   UNL     1     -26.180 -10.755 144.373  1.00  0.00    -0.298 NA
ATOM      2  N   UNL     1     -25.568 -16.015 147.257  1.00  0.00    -0.287 N 
ATOM      3  C   UNL     1     -26.374 -11.881 145.314  1.00  0.00     0.091 C 
ATOM      4  C   UNL     1     -27.826 -12.401 145.444  1.00  0.00    -0.026 C 
ATOM      5  C   UNL     1     -25.370 -13.043 144.987  1.00  0.00     0.061 C 
ATOM      6  C   UNL     1     -28.609 -10.960 143.568  1.00  0.00     0.116 C 
ATOM      7  C   UNL     1     -27.106 -10.813 143.225  1.00  0.00     0.102 C 
ATOM      8  C   UNL     1     -25.617 -14.186 145.922  1.00  0.00    -0.019 A 
ATOM      9  C   UNL     1     -28.015 -13.516 146.398  1.00  0.00    -0.011 A 
ATOM     10  C   UNL     1     -26.875 -14.332 146.542  1.00  0.00     0.011 A 
ATOM     11  C   UNL     1     -28.833 -11.960 144.668  1.00  0.00    -0.007 C 
ATOM     12  C   UNL     1     -26.853 -15.453 147.373  1.00  0.00     0.056 A 
ATOM     13  C   UNL     1     -24.836 -15.217 146.367  1.00  0.00     0.099 A 
ATOM     14  C   UNL     1     -26.251  -9.462 145.051  1.00  0.00     0.106 C 
ATOM     15  C   UNL     1     -29.162 -13.844 147.117  1.00  0.00     0.009 A 
ATOM     16  C   UNL     1     -28.019 -15.774 148.099  1.00  0.00     0.027 A 
ATOM     17  C   UNL     1     -29.156 -14.957 147.957  1.00  0.00     0.003 A 
ENDROOT
BRANCH   6  18
ATOM     18  C   UNL     1     -29.323  -9.585 143.646  1.00  0.00     0.230 C 
ATOM     19  O   UNL     1     -29.975  -9.270 144.647  1.00  0.00    -0.274 OA
ATOM     20  N   UNL     1     -29.019  -8.637 142.655  1.00  0.00    -0.343 N 
BRANCH  20  21
ATOM     21  C   UNL     1     -29.590  -8.855 141.319  1.00  0.00     0.116 C 
ATOM     22  C   UNL     1     -28.559  -9.234 140.261  1.00  0.00     0.027 C 
ENDBRANCH  20  21
BRANCH  20  23
ATOM     23  C   UNL     1     -28.973  -7.251 143.133  1.00  0.00     0.116 C 
ATOM     24  C   UNL     1     -29.328  -6.222 142.071  1.00  0.00     0.027 C 
ENDBRANCH  20  23
ENDBRANCH   6  18
BRANCH   2  25
ATOM     25  C   UNL     1     -24.997 -17.160 147.867  1.00  0.00     0.230 C 
ATOM     26  O   UNL     1     -24.826 -18.167 147.184  1.00  0.00    -0.274 OA
BRANCH  25  27
ATOM     27  C   UNL     1     -24.640 -17.058 149.323  1.00  0.00     0.097 C 
ATOM     28  C   UNL     1     -23.137 -17.154 149.544  1.00  0.00     0.014 C 
ENDBRANCH  25  27
ENDBRANCH   2  25
TORSDOF 5
ENDMDL
MODEL 9
REMARK VINA RESULT:    -8.697      1.922      3.673
REMARK INTER + INTRA:         -11.911
REMARK INTER:                 -11.489
REMARK INTRA:                  -0.422
REMARK UNBOUND:                -0.672
REMARK SMILES CCC(=O)n1cc2c3c(cccc31)C1=C[C@@H](C(=O)N(CC)CC)CN(C)[C@@H]1C2
REMARK SMILES IDX 25 1 5 2 27 3 14 4 28 5 16 6 24 7 7 8 9 9 8 10 15 11 13 12
REMARK SMILES IDX 6 13 26 14 10 15 12 16 11 17 17 18 18 19 19 20 20 21 21 22
REMARK SMILES IDX 22 23 23 24 3 25 4 26 2 27 1 28
REMARK H PARENT
ROOT
ATOM      1  N   UNL     1     -28.940 -11.110 145.216  1.00  0.00    -0.298 NA
ATOM      2  N   UNL     1     -32.008 -13.584 149.781  1.00  0.00    -0.287 N 
ATOM      3  C   UNL     1     -29.492 -12.087 146.183  1.00  0.00     0.091 C 
ATOM      4  C   UNL     1     -28.455 -13.011 146.866  1.00  0.00    -0.026 C 
ATOM      5  C   UNL     1     -30.399 -11.356 147.237  1.00  0.00     0.061 C 
ATOM      6  C   UNL     1     -26.544 -11.749 145.883  1.00  0.00     0.116 C 
ATOM      7  C   UNL     1     -27.591 -10.645 145.594  1.00  0.00     0.102 C 
ATOM      8  C   UNL     1     -30.908 -12.357 148.228  1.00  0.00    -0.019 A 
ATOM      9  C   UNL     1     -29.016 -13.994 147.819  1.00  0.00    -0.011 A 
ATOM     10  C   UNL     1     -30.207 -13.563 148.436  1.00  0.00     0.011 A 
ATOM     11  C   UNL     1     -27.127 -12.866 146.703  1.00  0.00    -0.007 C 
ATOM     12  C   UNL     1     -30.881 -14.330 149.387  1.00  0.00     0.056 A 
ATOM     13  C   UNL     1     -31.998 -12.387 149.053  1.00  0.00     0.099 A 
ATOM     14  C   UNL     1     -28.964 -11.627 143.849  1.00  0.00     0.106 C 
ATOM     15  C   UNL     1     -28.496 -15.236 148.173  1.00  0.00     0.009 A 
ATOM     16  C   UNL     1     -30.348 -15.588 149.736  1.00  0.00     0.027 A 
ATOM     17  C   UNL     1     -29.160 -16.020 149.117  1.00  0.00     0.003 A 
ENDROOT
BRANCH   6  18
ATOM     18  C   UNL     1     -25.708 -12.099 144.624  1.00  0.00     0.230 C 
ATOM     19  O   UNL     1     -25.616 -11.300 143.687  1.00  0.00    -0.274 OA
ATOM     20  N   UNL     1     -24.890 -13.239 144.684  1.00  0.00    -0.343 N 
BRANCH  20  21
ATOM     21  C   UNL     1     -25.554 -14.548 144.605  1.00  0.00     0.116 C 
ATOM     22  C   UNL     1     -24.920 -15.616 145.490  1.00  0.00     0.027 C 
ENDBRANCH  20  21
BRANCH  20  23
ATOM     23  C   UNL     1     -23.610 -13.108 143.979  1.00  0.00     0.116 C 
ATOM     24  C   UNL     1     -22.604 -12.218 144.691  1.00  0.00     0.027 C 
ENDBRANCH  20  23
ENDBRANCH   6  18
BRANCH   2  25
ATOM     25  C   UNL     1     -33.031 -13.873 150.718  1.00  0.00     0.230 C 
ATOM     26  O   UNL     1     -33.419 -12.975 151.462  1.00  0.00    -0.274 OA
BRANCH  25  27
ATOM     27  C   UNL     1     -33.574 -15.274 150.735  1.00  0.00     0.097 C 
ATOM     28  C   UNL     1     -33.315 -15.964 152.067  1.00  0.00     0.014 C 
ENDBRANCH  25  27
ENDBRANCH   2  25
TORSDOF 5
ENDMDL
MODEL 10
REMARK VINA RESULT:    -8.660      2.816      4.213
REMARK INTER + INTRA:         -11.863
REMARK INTER:                 -11.550
REMARK INTRA:                  -0.313
REMARK UNBOUND:                -0.672
REMARK SMILES CCC(=O)n1cc2c3c(cccc31)C1=C[C@@H](C(=O)N(CC)CC)CN(C)[C@@H]1C2
REMARK SMILES IDX 25 1 5 2 27 3 14 4 28 5 16 6 24 7 7 8 9 9 8 10 15 11 13 12
REMARK SMILES IDX 6 13 26 14 10 15 12 16 11 17 17 18 18 19 19 20 20 21 21 22
REMARK SMILES IDX 22 23 23 24 3 25 4 26 2 27 1 28
REMARK H PARENT
ROOT
ATOM      1  N   UNL     1     -24.579 -14.069 146.368  1.00  0.00    -0.298 NA
ATOM      2  N   UNL     1     -27.614 -17.435 150.346  1.00  0.00    -0.287 N 
ATOM      3  C   UNL     1     -25.590 -14.535 147.344  1.00  0.00     0.091 C 
ATOM      4  C   UNL     1     -27.065 -14.392 146.898  1.00  0.00    -0.026 C 
ATOM      5  C   UNL     1     -25.265 -16.000 147.807  1.00  0.00     0.061 C 
ATOM      6  C   UNL     1     -26.400 -13.711 144.594  1.00  0.00     0.116 C 
ATOM      7  C   UNL     1     -25.007 -14.274 144.971  1.00  0.00     0.102 C 
ATOM      8  C   UNL     1     -26.325 -16.464 148.756  1.00  0.00    -0.019 A 
ATOM      9  C   UNL     1     -28.071 -14.846 147.884  1.00  0.00    -0.011 A 
ATOM     10  C   UNL     1     -27.604 -15.871 148.731  1.00  0.00     0.011 A 
ATOM     11  C   UNL     1     -27.421 -13.994 145.662  1.00  0.00    -0.007 C 
ATOM     12  C   UNL     1     -28.405 -16.457 149.712  1.00  0.00     0.056 A 
ATOM     13  C   UNL     1     -26.349 -17.411 149.743  1.00  0.00     0.099 A 
ATOM     14  C   UNL     1     -24.191 -12.680 146.610  1.00  0.00     0.106 C 
ATOM     15  C   UNL     1     -29.381 -14.402 148.038  1.00  0.00     0.009 A 
ATOM     16  C   UNL     1     -29.729 -15.998 149.862  1.00  0.00     0.027 A 
ATOM     17  C   UNL     1     -30.194 -14.972 149.018  1.00  0.00     0.003 A 
ENDROOT
BRANCH   6  18
ATOM     18  C   UNL     1     -26.308 -12.279 144.006  1.00  0.00     0.230 C 
ATOM     19  O   UNL     1     -25.264 -11.881 143.480  1.00  0.00    -0.274 OA
ATOM     20  N   UNL     1     -27.500 -11.545 143.889  1.00  0.00    -0.343 N 
BRANCH  20  21
ATOM     21  C   UNL     1     -28.076 -10.998 145.126  1.00  0.00     0.116 C 
ATOM     22  C   UNL     1     -29.601 -11.028 145.163  1.00  0.00     0.027 C 
ENDBRANCH  20  21
BRANCH  20  23
ATOM     23  C   UNL     1     -27.579 -10.697 142.696  1.00  0.00     0.116 C 
ATOM     24  C   UNL     1     -27.834 -11.466 141.409  1.00  0.00     0.027 C 
ENDBRANCH  20  23
ENDBRANCH   6  18
BRANCH   2  25
ATOM     25  C   UNL     1     -27.915 -18.332 151.401  1.00  0.00     0.230 C 
ATOM     26  O   UNL     1     -29.084 -18.444 151.763  1.00  0.00    -0.274 OA
BRANCH  25  27
ATOM     27  C   UNL     1     -26.768 -19.088 152.010  1.00  0.00     0.097 C 
ATOM     28  C   UNL     1     -27.165 -19.762 153.316  1.00  0.00     0.014 C 
ENDBRANCH  25  27
ENDBRANCH   2  25
TORSDOF 5
ENDMDL
MODEL 11
REMARK VINA RESULT:    -8.566      2.753      4.337
REMARK INTER + INTRA:         -11.742
REMARK INTER:                 -10.700
REMARK INTRA:                  -1.042
REMARK UNBOUND:                -0.672
REMARK SMILES CCC(=O)n1cc2c3c(cccc31)C1=C[C@@H](C(=O)N(CC)CC)CN(C)[C@@H]1C2
REMARK SMILES IDX 25 1 5 2 27 3 14 4 28 5 16 6 24 7 7 8 9 9 8 10 15 11 13 12
REMARK SMILES IDX 6 13 26 14 10 15 12 16 11 17 17 18 18 19 19 20 20 21 21 22
REMARK SMILES IDX 22 23 23 24 3 25 4 26 2 27 1 28
REMARK H PARENT
ROOT
ATOM      1  N   UNL     1     -28.005 -15.407 146.358  1.00  0.00    -0.298 NA
ATOM      2  N   UNL     1     -28.705 -18.132 151.692  1.00  0.00    -0.287 N 
ATOM      3  C   UNL     1     -27.766 -16.224 147.569  1.00  0.00     0.091 C 
ATOM      4  C   UNL     1     -26.420 -15.970 148.292  1.00  0.00    -0.026 C 
ATOM      5  C   UNL     1     -28.983 -16.107 148.554  1.00  0.00     0.061 C 
ATOM      6  C   UNL     1     -25.897 -14.019 146.832  1.00  0.00     0.116 C 
ATOM      7  C   UNL     1     -27.399 -14.065 146.454  1.00  0.00     0.102 C 
ATOM      8  C   UNL     1     -28.698 -16.904 149.789  1.00  0.00    -0.019 A 
ATOM      9  C   UNL     1     -26.182 -16.800 149.494  1.00  0.00    -0.011 A 
ATOM     10  C   UNL     1     -27.366 -17.187 150.154  1.00  0.00     0.011 A 
ATOM     11  C   UNL     1     -25.572 -14.988 147.935  1.00  0.00    -0.007 C 
ATOM     12  C   UNL     1     -27.359 -17.950 151.322  1.00  0.00     0.056 A 
ATOM     13  C   UNL     1     -29.497 -17.485 150.735  1.00  0.00     0.099 A 
ATOM     14  C   UNL     1     -27.578 -16.100 145.143  1.00  0.00     0.106 C 
ATOM     15  C   UNL     1     -24.960 -17.199 150.031  1.00  0.00     0.009 A 
ATOM     16  C   UNL     1     -26.117 -18.352 151.855  1.00  0.00     0.027 A 
ATOM     17  C   UNL     1     -24.936 -17.968 151.194  1.00  0.00     0.003 A 
ENDROOT
BRANCH   6  18
ATOM     18  C   UNL     1     -24.985 -13.977 145.578  1.00  0.00     0.230 C 
ATOM     19  O   UNL     1     -24.181 -14.887 145.353  1.00  0.00    -0.274 OA
ATOM     20  N   UNL     1     -25.259 -13.000 144.607  1.00  0.00    -0.343 N 
BRANCH  20  21
ATOM     21  C   UNL     1     -24.887 -11.614 144.923  1.00  0.00     0.116 C 
ATOM     22  C   UNL     1     -26.080 -10.685 145.124  1.00  0.00     0.027 C 
ENDBRANCH  20  21
BRANCH  20  23
ATOM     23  C   UNL     1     -25.045 -13.439 143.224  1.00  0.00     0.116 C 
ATOM     24  C   UNL     1     -26.310 -13.456 142.380  1.00  0.00     0.027 C 
ENDBRANCH  20  23
ENDBRANCH   6  18
BRANCH   2  25
ATOM     25  C   UNL     1     -29.281 -18.815 152.791  1.00  0.00     0.230 C 
ATOM     26  O   UNL     1     -29.820 -18.157 153.677  1.00  0.00    -0.274 OA
BRANCH  25  27
ATOM     27  C   UNL     1     -29.189 -20.316 152.795  1.00  0.00     0.097 C 
ATOM     28  C   UNL     1     -28.068 -20.810 153.698  1.00  0.00     0.014 C 
ENDBRANCH  25  27
ENDBRANCH   2  25
TORSDOF 5
ENDMDL
MODEL 12
REMARK VINA RESULT:    -8.362      2.244      2.839
REMARK INTER + INTRA:         -11.478
REMARK INTER:                 -10.912
REMARK INTRA:                  -0.566
REMARK UNBOUND:                -0.672
REMARK SMILES CCC(=O)n1cc2c3c(cccc31)C1=C[C@@H](C(=O)N(CC)CC)CN(C)[C@@H]1C2
REMARK SMILES IDX 25 1 5 2 27 3 14 4 28 5 16 6 24 7 7 8 9 9 8 10 15 11 13 12
REMARK SMILES IDX 6 13 26 14 10 15 12 16 11 17 17 18 18 19 19 20 20 21 21 22
REMARK SMILES IDX 22 23 23 24 3 25 4 26 2 27 1 28
REMARK H PARENT
ROOT
ATOM      1  N   UNL     1     -25.627 -15.587 147.020  1.00  0.00    -0.298 NA
ATOM      2  N   UNL     1     -29.726 -16.874 151.252  1.00  0.00    -0.287 N 
ATOM      3  C   UNL     1     -26.747 -15.477 147.982  1.00  0.00     0.091 C 
ATOM      4  C   UNL     1     -28.060 -14.886 147.415  1.00  0.00    -0.026 C 
ATOM      5  C   UNL     1     -26.992 -16.856 148.693  1.00  0.00     0.061 C 
ATOM      6  C   UNL     1     -27.173 -14.904 145.087  1.00  0.00     0.116 C 
ATOM      7  C   UNL     1     -26.090 -15.861 145.645  1.00  0.00     0.102 C 
ATOM      8  C   UNL     1     -28.156 -16.730 149.626  1.00  0.00    -0.019 A 
ATOM      9  C   UNL     1     -29.171 -14.765 148.386  1.00  0.00    -0.011 A 
ATOM     10  C   UNL     1     -29.124 -15.727 149.416  1.00  0.00     0.011 A 
ATOM     11  C   UNL     1     -28.234 -14.607 146.110  1.00  0.00    -0.007 C 
ATOM     12  C   UNL     1     -30.093 -15.802 150.417  1.00  0.00     0.056 A 
ATOM     13  C   UNL     1     -28.538 -17.418 150.745  1.00  0.00     0.099 A 
ATOM     14  C   UNL     1     -24.754 -14.416 147.066  1.00  0.00     0.106 C 
ATOM     15  C   UNL     1     -30.224 -13.855 148.374  1.00  0.00     0.009 A 
ATOM     16  C   UNL     1     -31.154 -14.873 150.397  1.00  0.00     0.027 A 
ATOM     17  C   UNL     1     -31.198 -13.912 149.371  1.00  0.00     0.003 A 
ENDROOT
BRANCH   6  18
ATOM     18  C   UNL     1     -26.551 -13.729 144.287  1.00  0.00     0.230 C 
ATOM     19  O   UNL     1     -25.763 -13.945 143.361  1.00  0.00    -0.274 OA
ATOM     20  N   UNL     1     -27.080 -12.445 144.500  1.00  0.00    -0.343 N 
BRANCH  20  21
ATOM     21  C   UNL     1     -26.729 -11.773 145.759  1.00  0.00     0.116 C 
ATOM     22  C   UNL     1     -25.482 -10.900 145.665  1.00  0.00     0.027 C 
ENDBRANCH  20  21
BRANCH  20  23
ATOM     23  C   UNL     1     -27.139 -11.605 143.300  1.00  0.00     0.116 C 
ATOM     24  C   UNL     1     -28.401 -10.761 143.200  1.00  0.00     0.027 C 
ENDBRANCH  20  23
ENDBRANCH   6  18
BRANCH   2  25
ATOM     25  C   UNL     1     -30.347 -17.403 152.411  1.00  0.00     0.230 C 
ATOM     26  O   UNL     1     -31.553 -17.228 152.565  1.00  0.00    -0.274 OA
BRANCH  25  27
ATOM     27  C   UNL     1     -29.472 -18.147 153.382  1.00  0.00     0.097 C 
ATOM     28  C   UNL     1     -29.865 -19.614 153.485  1.00  0.00     0.014 C 
ENDBRANCH  25  27
ENDBRANCH   2  25
TORSDOF 5
ENDMDL
MODEL 13
REMARK VINA RESULT:    -8.291      3.371      6.833
REMARK INTER + INTRA:         -11.386
REMARK INTER:                 -10.880
REMARK INTRA:                  -0.506
REMARK UNBOUND:                -0.672
REMARK SMILES CCC(=O)n1cc2c3c(cccc31)C1=C[C@@H](C(=O)N(CC)CC)CN(C)[C@@H]1C2
REMARK SMILES IDX 25 1 5 2 27 3 14 4 28 5 16 6 24 7 7 8 9 9 8 10 15 11 13 12
REMARK SMILES IDX 6 13 26 14 10 15 12 16 11 17 17 18 18 19 19 20 20 21 21 22
REMARK SMILES IDX 22 23 23 24 3 25 4 26 2 27 1 28
REMARK H PARENT
ROOT
ATOM      1  N   UNL     1     -25.674 -16.282 145.717  1.00  0.00    -0.298 NA
ATOM      2  N   UNL     1     -27.937 -11.142 143.520  1.00  0.00    -0.287 N 
ATOM      3  C   UNL     1     -26.560 -15.124 145.462  1.00  0.00     0.091 C 
ATOM      4  C   UNL     1     -27.057 -14.372 146.721  1.00  0.00    -0.026 C 
ATOM      5  C   UNL     1     -25.893 -14.145 144.430  1.00  0.00     0.061 C 
ATOM      6  C   UNL     1     -25.568 -15.699 148.215  1.00  0.00     0.116 C 
ATOM      7  C   UNL     1     -24.829 -16.094 146.912  1.00  0.00     0.102 C 
ATOM      8  C   UNL     1     -26.786 -12.962 144.224  1.00  0.00    -0.019 A 
ATOM      9  C   UNL     1     -27.954 -13.224 146.459  1.00  0.00    -0.011 A 
ATOM     10  C   UNL     1     -27.722 -12.603 145.215  1.00  0.00     0.011 A 
ATOM     11  C   UNL     1     -26.622 -14.657 147.962  1.00  0.00    -0.007 C 
ATOM     12  C   UNL     1     -28.442 -11.486 144.788  1.00  0.00     0.056 A 
ATOM     13  C   UNL     1     -26.930 -12.064 143.202  1.00  0.00     0.099 A 
ATOM     14  C   UNL     1     -26.425 -17.535 145.786  1.00  0.00     0.106 C 
ATOM     15  C   UNL     1     -28.942 -12.702 147.289  1.00  0.00     0.009 A 
ATOM     16  C   UNL     1     -29.443 -10.967 145.635  1.00  0.00     0.027 A 
ATOM     17  C   UNL     1     -29.676 -11.590 146.875  1.00  0.00     0.003 A 
ENDROOT
BRANCH   6  18
ATOM     18  C   UNL     1     -25.929 -16.938 149.076  1.00  0.00     0.230 C 
ATOM     19  O   UNL     1     -25.123 -17.862 149.217  1.00  0.00    -0.274 OA
ATOM     20  N   UNL     1     -27.094 -16.870 149.858  1.00  0.00    -0.343 N 
BRANCH  20  21
ATOM     21  C   UNL     1     -28.381 -16.982 149.158  1.00  0.00     0.116 C 
ATOM     22  C   UNL     1     -29.385 -15.897 149.532  1.00  0.00     0.027 C 
ENDBRANCH  20  21
BRANCH  20  23
ATOM     23  C   UNL     1     -26.993 -17.537 151.160  1.00  0.00     0.116 C 
ATOM     24  C   UNL     1     -28.096 -18.551 151.420  1.00  0.00     0.027 C 
ENDBRANCH  20  23
ENDBRANCH   6  18
BRANCH   2  25
ATOM     25  C   UNL     1     -28.290 -10.095 142.633  1.00  0.00     0.230 C 
ATOM     26  O   UNL     1     -28.514  -8.980 143.097  1.00  0.00    -0.274 OA
BRANCH  25  27
ATOM     27  C   UNL     1     -28.367 -10.429 141.170  1.00  0.00     0.097 C 
ATOM     28  C   UNL     1     -28.516  -9.180 140.312  1.00  0.00     0.014 C 
ENDBRANCH  25  27
ENDBRANCH   2  25
TORSDOF 5
ENDMDL
MODEL 14
REMARK VINA RESULT:    -8.261      3.810      6.688
REMARK INTER + INTRA:         -11.348
REMARK INTER:                 -10.869
REMARK INTRA:                  -0.479
REMARK UNBOUND:                -0.672
REMARK SMILES CCC(=O)n1cc2c3c(cccc31)C1=C[C@@H](C(=O)N(CC)CC)CN(C)[C@@H]1C2
REMARK SMILES IDX 25 1 5 2 27 3 14 4 28 5 16 6 24 7 7 8 9 9 8 10 15 11 13 12
REMARK SMILES IDX 6 13 26 14 10 15 12 16 11 17 17 18 18 19 19 20 20 21 21 22
REMARK SMILES IDX 22 23 23 24 3 25 4 26 2 27 1 28
REMARK H PARENT
ROOT
ATOM      1  N   UNL     1     -25.117 -13.917 144.361  1.00  0.00    -0.298 NA
ATOM      2  N   UNL     1     -29.130  -9.436 143.919  1.00  0.00    -0.287 N 
ATOM      3  C   UNL     1     -26.356 -13.113 144.472  1.00  0.00     0.091 C 
ATOM      4  C   UNL     1     -26.974 -13.031 145.889  1.00  0.00    -0.026 C 
ATOM      5  C   UNL     1     -26.137 -11.686 143.853  1.00  0.00     0.061 C 
ATOM      6  C   UNL     1     -25.015 -14.182 146.912  1.00  0.00     0.116 C 
ATOM      7  C   UNL     1     -24.292 -13.853 145.583  1.00  0.00     0.102 C 
ATOM      8  C   UNL     1     -27.387 -10.879 144.019  1.00  0.00    -0.019 A 
ATOM      9  C   UNL     1     -28.220 -12.238 145.990  1.00  0.00    -0.011 A 
ATOM     10  C   UNL     1     -28.308 -11.205 145.036  1.00  0.00     0.011 A 
ATOM     11  C   UNL     1     -26.373 -13.540 146.980  1.00  0.00    -0.007 C 
ATOM     12  C   UNL     1     -29.390 -10.326 144.978  1.00  0.00     0.056 A 
ATOM     13  C   UNL     1     -27.902  -9.802 143.351  1.00  0.00     0.099 A 
ATOM     14  C   UNL     1     -25.400 -15.299 143.978  1.00  0.00     0.106 C 
ATOM     15  C   UNL     1     -29.257 -12.386 146.908  1.00  0.00     0.009 A 
ATOM     16  C   UNL     1     -30.436 -10.486 145.910  1.00  0.00     0.027 A 
ATOM     17  C   UNL     1     -30.350 -11.520 146.860  1.00  0.00     0.003 A 
ENDROOT
BRANCH   6  18
ATOM     18  C   UNL     1     -24.874 -15.679 147.295  1.00  0.00     0.230 C 
ATOM     19  O   UNL     1     -23.920 -16.346 146.882  1.00  0.00    -0.274 OA
ATOM     20  N   UNL     1     -25.727 -16.179 148.292  1.00  0.00    -0.343 N 
BRANCH  20  21
ATOM     21  C   UNL     1     -27.131 -16.408 147.923  1.00  0.00     0.116 C 
ATOM     22  C   UNL     1     -27.311 -17.094 146.573  1.00  0.00     0.027 C 
ENDBRANCH  20  21
BRANCH  20  23
ATOM     23  C   UNL     1     -25.111 -17.171 149.179  1.00  0.00     0.116 C 
ATOM     24  C   UNL     1     -24.938 -16.692 150.612  1.00  0.00     0.027 C 
ENDBRANCH  20  23
ENDBRANCH   6  18
BRANCH   2  25
ATOM     25  C   UNL     1     -29.881  -8.343 143.419  1.00  0.00     0.230 C 
ATOM     26  O   UNL     1     -31.102  -8.360 143.548  1.00  0.00    -0.274 OA
BRANCH  25  27
ATOM     27  C   UNL     1     -29.118  -7.230 142.757  1.00  0.00     0.097 C 
ATOM     28  C   UNL     1     -29.455  -7.117 141.277  1.00  0.00     0.014 C 
ENDBRANCH  25  27
ENDBRANCH   2  25
TORSDOF 5
ENDMDL
MODEL 15
REMARK VINA RESULT:    -8.232      2.482      3.542
REMARK INTER + INTRA:         -11.311
REMARK INTER:                 -10.988
REMARK INTRA:                  -0.323
REMARK UNBOUND:                -0.672
REMARK SMILES CCC(=O)n1cc2c3c(cccc31)C1=C[C@@H](C(=O)N(CC)CC)CN(C)[C@@H]1C2
REMARK SMILES IDX 25 1 5 2 27 3 14 4 28 5 16 6 24 7 7 8 9 9 8 10 15 11 13 12
REMARK SMILES IDX 6 13 26 14 10 15 12 16 11 17 17 18 18 19 19 20 20 21 21 22
REMARK SMILES IDX 22 23 23 24 3 25 4 26 2 27 1 28
REMARK H PARENT
ROOT
ATOM      1  N   UNL     1     -27.079 -16.594 148.468  1.00  0.00    -0.298 NA
ATOM      2  N   UNL     1     -31.449 -12.439 148.402  1.00  0.00    -0.287 N 
ATOM      3  C   UNL     1     -27.825 -15.331 148.266  1.00  0.00     0.091 C 
ATOM      4  C   UNL     1     -27.727 -14.715 146.849  1.00  0.00    -0.026 C 
ATOM      5  C   UNL     1     -29.319 -15.502 148.721  1.00  0.00     0.061 C 
ATOM      6  C   UNL     1     -26.531 -16.714 145.962  1.00  0.00     0.116 C 
ATOM      7  C   UNL     1     -27.031 -17.421 147.246  1.00  0.00     0.102 C 
ATOM      8  C   UNL     1     -30.061 -14.228 148.465  1.00  0.00    -0.019 A 
ATOM      9  C   UNL     1     -28.463 -13.445 146.660  1.00  0.00    -0.011 A 
ATOM     10  C   UNL     1     -29.593 -13.321 147.492  1.00  0.00     0.011 A 
ATOM     11  C   UNL     1     -27.118 -15.336 145.823  1.00  0.00    -0.007 C 
ATOM     12  C   UNL     1     -30.438 -12.211 147.450  1.00  0.00     0.056 A 
ATOM     13  C   UNL     1     -31.189 -13.676 149.007  1.00  0.00     0.099 A 
ATOM     14  C   UNL     1     -25.741 -16.355 149.004  1.00  0.00     0.106 C 
ATOM     15  C   UNL     1     -28.179 -12.417 145.765  1.00  0.00     0.009 A 
ATOM     16  C   UNL     1     -30.141 -11.174 146.543  1.00  0.00     0.027 A 
ATOM     17  C   UNL     1     -29.010 -11.297 145.715  1.00  0.00     0.003 A 
ENDROOT
BRANCH   6  18
ATOM     18  C   UNL     1     -25.006 -16.904 145.751  1.00  0.00     0.230 C 
ATOM     19  O   UNL     1     -24.307 -15.975 145.338  1.00  0.00    -0.274 OA
ATOM     20  N   UNL     1     -24.422 -18.079 146.253  1.00  0.00    -0.343 N 
BRANCH  20  21
ATOM     21  C   UNL     1     -24.678 -19.325 145.517  1.00  0.00     0.116 C 
ATOM     22  C   UNL     1     -23.726 -20.461 145.875  1.00  0.00     0.027 C 
ENDBRANCH  20  21
BRANCH  20  23
ATOM     23  C   UNL     1     -23.072 -17.903 146.797  1.00  0.00     0.116 C 
ATOM     24  C   UNL     1     -23.035 -17.724 148.307  1.00  0.00     0.027 C 
ENDBRANCH  20  23
ENDBRANCH   6  18
BRANCH   2  25
ATOM     25  C   UNL     1     -32.567 -11.652 148.776  1.00  0.00     0.230 C 
ATOM     26  O   UNL     1     -33.521 -11.581 148.005  1.00  0.00    -0.274 OA
BRANCH  25  27
ATOM     27  C   UNL     1     -32.503 -10.952 150.104  1.00  0.00     0.097 C 
ATOM     28  C   UNL     1     -33.113 -11.794 151.216  1.00  0.00     0.014 C 
ENDBRANCH  25  27
ENDBRANCH   2  25
TORSDOF 5
ENDMDL
MODEL 16
REMARK VINA RESULT:    -8.198      2.860      4.070
REMARK INTER + INTRA:         -11.267
REMARK INTER:                 -10.765
REMARK INTRA:                  -0.502
REMARK UNBOUND:                -0.672
REMARK SMILES CCC(=O)n1cc2c3c(cccc31)C1=C[C@@H](C(=O)N(CC)CC)CN(C)[C@@H]1C2
REMARK SMILES IDX 25 1 5 2 27 3 14 4 28 5 16 6 24 7 7 8 9 9 8 10 15 11 13 12
REMARK SMILES IDX 6 13 26 14 10 15 12 16 11 17 17 18 18 19 19 20 20 21 21 22
REMARK SMILES IDX 22 23 23 24 3 25 4 26 2 27 1 28
REMARK H PARENT
ROOT
ATOM      1  N   UNL     1     -25.133 -15.130 147.126  1.00  0.00    -0.298 NA
ATOM      2  N   UNL     1     -27.952 -18.215 151.474  1.00  0.00    -0.287 N 
ATOM      3  C   UNL     1     -26.078 -15.518 148.198  1.00  0.00     0.091 C 
ATOM      4  C   UNL     1     -27.579 -15.336 147.865  1.00  0.00    -0.026 C 
ATOM      5  C   UNL     1     -25.768 -16.975 148.696  1.00  0.00     0.061 C 
ATOM      6  C   UNL     1     -27.079 -14.775 145.489  1.00  0.00     0.116 C 
ATOM      7  C   UNL     1     -25.680 -15.374 145.777  1.00  0.00     0.102 C 
ATOM      8  C   UNL     1     -26.763 -17.359 149.746  1.00  0.00    -0.019 A 
ATOM      9  C   UNL     1     -28.516 -15.712 148.947  1.00  0.00    -0.011 A 
ATOM     10  C   UNL     1     -28.018 -16.719 149.797  1.00  0.00     0.011 A 
ATOM     11  C   UNL     1     -28.019 -14.976 146.645  1.00  0.00    -0.007 C 
ATOM     12  C   UNL     1     -28.757 -17.235 150.863  1.00  0.00     0.056 A 
ATOM     13  C   UNL     1     -26.741 -18.264 150.771  1.00  0.00     0.099 A 
ATOM     14  C   UNL     1     -24.679 -13.749 147.276  1.00  0.00     0.106 C 
ATOM     15  C   UNL     1     -29.794 -15.212 149.184  1.00  0.00     0.009 A 
ATOM     16  C   UNL     1     -30.048 -16.719 151.097  1.00  0.00     0.027 A 
ATOM     17  C   UNL     1     -30.544 -15.712 150.250  1.00  0.00     0.003 A 
ENDROOT
BRANCH   6  18
ATOM     18  C   UNL     1     -26.985 -13.372 144.833  1.00  0.00     0.230 C 
ATOM     19  O   UNL     1     -27.834 -12.508 145.071  1.00  0.00    -0.274 OA
ATOM     20  N   UNL     1     -25.799 -13.051 144.152  1.00  0.00    -0.343 N 
BRANCH  20  21
ATOM     21  C   UNL     1     -25.587 -13.677 142.839  1.00  0.00     0.116 C 
ATOM     22  C   UNL     1     -26.685 -13.372 141.825  1.00  0.00     0.027 C 
ENDBRANCH  20  21
BRANCH  20  23
ATOM     23  C   UNL     1     -25.378 -11.653 144.289  1.00  0.00     0.116 C 
ATOM     24  C   UNL     1     -23.893 -11.482 144.571  1.00  0.00     0.027 C 
ENDBRANCH  20  23
ENDBRANCH   6  18
BRANCH   2  25
ATOM     25  C   UNL     1     -28.198 -19.057 152.587  1.00  0.00     0.230 C 
ATOM     26  O   UNL     1     -29.362 -19.299 152.896  1.00  0.00    -0.274 OA
BRANCH  25  27
ATOM     27  C   UNL     1     -27.002 -19.597 153.319  1.00  0.00     0.097 C 
ATOM     28  C   UNL     1     -27.093 -21.104 153.516  1.00  0.00     0.014 C 
ENDBRANCH  25  27
ENDBRANCH   2  25
TORSDOF 5
ENDMDL
MODEL 17
REMARK VINA RESULT:    -8.145      3.933      6.813
REMARK INTER + INTRA:         -11.197
REMARK INTER:                 -10.266
REMARK INTRA:                  -0.931
REMARK UNBOUND:                -0.672
REMARK SMILES CCC(=O)n1cc2c3c(cccc31)C1=C[C@@H](C(=O)N(CC)CC)CN(C)[C@@H]1C2
REMARK SMILES IDX 25 1 5 2 27 3 14 4 28 5 16 6 24 7 7 8 9 9 8 10 15 11 13 12
REMARK SMILES IDX 6 13 26 14 10 15 12 16 11 17 17 18 18 19 19 20 20 21 21 22
REMARK SMILES IDX 22 23 23 24 3 25 4 26 2 27 1 28
REMARK H PARENT
ROOT
ATOM      1  N   UNL     1     -25.267 -14.800 144.851  1.00  0.00    -0.298 NA
ATOM      2  N   UNL     1     -28.417  -9.891 143.317  1.00  0.00    -0.287 N 
ATOM      3  C   UNL     1     -26.352 -13.801 144.720  1.00  0.00     0.091 C 
ATOM      4  C   UNL     1     -27.021 -13.364 146.046  1.00  0.00    -0.026 C 
ATOM      5  C   UNL     1     -25.858 -12.566 143.886  1.00  0.00     0.061 C 
ATOM      6  C   UNL     1     -25.347 -14.607 147.410  1.00  0.00     0.116 C 
ATOM      7  C   UNL     1     -24.509 -14.647 146.108  1.00  0.00     0.102 C 
ATOM      8  C   UNL     1     -26.957 -11.552 143.807  1.00  0.00    -0.019 A 
ATOM      9  C   UNL     1     -28.115 -12.376 145.906  1.00  0.00    -0.011 A 
ATOM     10  C   UNL     1     -27.973 -11.534 144.785  1.00  0.00     0.011 A 
ATOM     11  C   UNL     1     -26.575 -13.754 147.254  1.00  0.00    -0.007 C 
ATOM     12  C   UNL     1     -28.882 -10.519 144.488  1.00  0.00     0.056 A 
ATOM     13  C   UNL     1     -27.243 -10.547 142.924  1.00  0.00     0.099 A 
ATOM     14  C   UNL     1     -25.763 -16.165 144.688  1.00  0.00     0.106 C 
ATOM     15  C   UNL     1     -29.209 -12.185 146.747  1.00  0.00     0.009 A 
ATOM     16  C   UNL     1     -29.988 -10.336 145.344  1.00  0.00     0.027 A 
ATOM     17  C   UNL     1     -30.131 -11.178 146.461  1.00  0.00     0.003 A 
ENDROOT
BRANCH   6  18
ATOM     18  C   UNL     1     -25.486 -16.012 148.054  1.00  0.00     0.230 C 
ATOM     19  O   UNL     1     -26.601 -16.490 148.287  1.00  0.00    -0.274 OA
ATOM     20  N   UNL     1     -24.328 -16.801 148.150  1.00  0.00    -0.343 N 
BRANCH  20  21
ATOM     21  C   UNL     1     -23.345 -16.429 149.176  1.00  0.00     0.116 C 
ATOM     22  C   UNL     1     -23.568 -17.112 150.522  1.00  0.00     0.027 C 
ENDBRANCH  20  21
BRANCH  20  23
ATOM     23  C   UNL     1     -24.549 -18.235 147.940  1.00  0.00     0.116 C 
ATOM     24  C   UNL     1     -24.039 -18.748 146.603  1.00  0.00     0.027 C 
ENDBRANCH  20  23
ENDBRANCH   6  18
BRANCH   2  25
ATOM     25  C   UNL     1     -28.940  -8.802 142.577  1.00  0.00     0.230 C 
ATOM     26  O   UNL     1     -28.904  -7.680 143.076  1.00  0.00    -0.274 OA
BRANCH  25  27
ATOM     27  C   UNL     1     -29.510  -9.103 141.219  1.00  0.00     0.097 C 
ATOM     28  C   UNL     1     -28.624  -8.567 140.103  1.00  0.00     0.014 C 
ENDBRANCH  25  27
ENDBRANCH   2  25
TORSDOF 5
ENDMDL
MODEL 18
REMARK VINA RESULT:    -7.972      3.844      7.062
REMARK INTER + INTRA:         -10.974
REMARK INTER:                 -10.554
REMARK INTRA:                  -0.420
REMARK UNBOUND:                -0.672
REMARK SMILES CCC(=O)n1cc2c3c(cccc31)C1=C[C@@H](C(=O)N(CC)CC)CN(C)[C@@H]1C2
REMARK SMILES IDX 25 1 5 2 27 3 14 4 28 5 16 6 24 7 7 8 9 9 8 10 15 11 13 12
REMARK SMILES IDX 6 13 26 14 10 15 12 16 11 17 17 18 18 19 19 20 20 21 21 22
REMARK SMILES IDX 22 23 23 24 3 25 4 26 2 27 1 28
REMARK H PARENT
ROOT
ATOM      1  N   UNL     1     -25.429 -11.539 143.839  1.00  0.00    -0.298 NA
ATOM      2  N   UNL     1     -24.903 -17.058 146.212  1.00  0.00    -0.287 N 
ATOM      3  C   UNL     1     -25.552 -12.707 144.741  1.00  0.00     0.091 C 
ATOM      4  C   UNL     1     -26.991 -13.051 145.197  1.00  0.00    -0.026 C 
ATOM      5  C   UNL     1     -24.829 -13.955 144.118  1.00  0.00     0.061 C 
ATOM      6  C   UNL     1     -27.984 -11.372 143.646  1.00  0.00     0.116 C 
ATOM      7  C   UNL     1     -26.599 -11.386 142.953  1.00  0.00     0.102 C 
ATOM      8  C   UNL     1     -25.007 -15.132 145.025  1.00  0.00    -0.019 A 
ATOM      9  C   UNL     1     -27.105 -14.211 146.109  1.00  0.00    -0.011 A 
ATOM     10  C   UNL     1     -26.090 -15.171 145.927  1.00  0.00     0.011 A 
ATOM     11  C   UNL     1     -28.081 -12.425 144.715  1.00  0.00    -0.007 C 
ATOM     12  C   UNL     1     -26.031 -16.352 146.669  1.00  0.00     0.056 A 
ATOM     13  C   UNL     1     -24.297 -16.286 145.212  1.00  0.00     0.099 A 
ATOM     14  C   UNL     1     -25.154 -10.309 144.579  1.00  0.00     0.106 C 
ATOM     15  C   UNL     1     -28.084 -14.452 147.070  1.00  0.00     0.009 A 
ATOM     16  C   UNL     1     -27.025 -16.585 147.641  1.00  0.00     0.027 A 
ATOM     17  C   UNL     1     -28.037 -15.624 147.825  1.00  0.00     0.003 A 
ENDROOT
BRANCH   6  18
ATOM     18  C   UNL     1     -28.457  -9.930 143.968  1.00  0.00     0.230 C 
ATOM     19  O   UNL     1     -27.920  -8.956 143.430  1.00  0.00    -0.274 OA
ATOM     20  N   UNL     1     -29.645  -9.784 144.704  1.00  0.00    -0.343 N 
BRANCH  20  21
ATOM     21  C   UNL     1     -29.586 -10.084 146.141  1.00  0.00     0.116 C 
ATOM     22  C   UNL     1     -30.520 -11.209 146.576  1.00  0.00     0.027 C 
ENDBRANCH  20  21
BRANCH  20  23
ATOM     23  C   UNL     1     -30.472  -8.641 144.304  1.00  0.00     0.116 C 
ATOM     24  C   UNL     1     -31.190  -8.834 142.977  1.00  0.00     0.027 C 
ENDBRANCH  20  23
ENDBRANCH   6  18
BRANCH   2  25
ATOM     25  C   UNL     1     -24.372 -18.313 146.603  1.00  0.00     0.230 C 
ATOM     26  O   UNL     1     -24.973 -19.334 146.279  1.00  0.00    -0.274 OA
BRANCH  25  27
ATOM     27  C   UNL     1     -23.096 -18.302 147.399  1.00  0.00     0.097 C 
ATOM     28  C   UNL     1     -23.245 -17.516 148.694  1.00  0.00     0.014 C 
ENDBRANCH  25  27
ENDBRANCH   2  25
TORSDOF 5
ENDMDL
MODEL 19
REMARK VINA RESULT:    -7.942      3.118      7.021
REMARK INTER + INTRA:         -10.935
REMARK INTER:                 -10.496
REMARK INTRA:                  -0.439
REMARK UNBOUND:                -0.672
REMARK SMILES CCC(=O)n1cc2c3c(cccc31)C1=C[C@@H](C(=O)N(CC)CC)CN(C)[C@@H]1C2
REMARK SMILES IDX 25 1 5 2 27 3 14 4 28 5 16 6 24 7 7 8 9 9 8 10 15 11 13 12
REMARK SMILES IDX 6 13 26 14 10 15 12 16 11 17 17 18 18 19 19 20 20 21 21 22
REMARK SMILES IDX 22 23 23 24 3 25 4 26 2 27 1 28
REMARK H PARENT
ROOT
ATOM      1  N   UNL     1     -29.426 -14.047 147.468  1.00  0.00    -0.298 NA
ATOM      2  N   UNL     1     -24.347 -17.254 146.926  1.00  0.00    -0.287 N 
ATOM      3  C   UNL     1     -28.217 -14.696 146.911  1.00  0.00     0.091 C 
ATOM      4  C   UNL     1     -27.288 -13.777 146.080  1.00  0.00    -0.026 C 
ATOM      5  C   UNL     1     -27.428 -15.443 148.045  1.00  0.00     0.061 C 
ATOM      6  C   UNL     1     -28.591 -11.745 146.697  1.00  0.00     0.116 C 
ATOM      7  C   UNL     1     -29.197 -12.631 147.814  1.00  0.00     0.102 C 
ATOM      8  C   UNL     1     -26.189 -16.051 147.466  1.00  0.00    -0.019 A 
ATOM      9  C   UNL     1     -26.089 -14.436 145.515  1.00  0.00    -0.011 A 
ATOM     10  C   UNL     1     -25.632 -15.526 146.282  1.00  0.00     0.011 A 
ATOM     11  C   UNL     1     -27.480 -12.450 145.969  1.00  0.00    -0.007 C 
ATOM     12  C   UNL     1     -24.500 -16.265 145.937  1.00  0.00     0.056 A 
ATOM     13  C   UNL     1     -25.396 -17.100 147.843  1.00  0.00     0.099 A 
ATOM     14  C   UNL     1     -30.580 -14.202 146.585  1.00  0.00     0.106 C 
ATOM     15  C   UNL     1     -25.383 -14.089 144.366  1.00  0.00     0.009 A 
ATOM     16  C   UNL     1     -23.794 -15.907 144.770  1.00  0.00     0.027 A 
ATOM     17  C   UNL     1     -24.253 -14.821 144.002  1.00  0.00     0.003 A 
ENDROOT
BRANCH   6  18
ATOM     18  C   UNL     1     -29.688 -11.021 145.872  1.00  0.00     0.230 C 
ATOM     19  O   UNL     1     -30.853 -10.975 146.278  1.00  0.00    -0.274 OA
ATOM     20  N   UNL     1     -29.271 -10.238 144.782  1.00  0.00    -0.343 N 
BRANCH  20  21
ATOM     21  C   UNL     1     -28.833 -10.949 143.573  1.00  0.00     0.116 C 
ATOM     22  C   UNL     1     -27.404 -10.625 143.150  1.00  0.00     0.027 C 
ENDBRANCH  20  21
BRANCH  20  23
ATOM     23  C   UNL     1     -30.052  -9.014 144.579  1.00  0.00     0.116 C 
ATOM     24  C   UNL     1     -30.619  -8.871 143.175  1.00  0.00     0.027 C 
ENDBRANCH  20  23
ENDBRANCH   6  18
BRANCH   2  25
ATOM     25  C   UNL     1     -23.371 -18.270 147.082  1.00  0.00     0.230 C 
ATOM     26  O   UNL     1     -22.623 -18.223 148.055  1.00  0.00    -0.274 OA
BRANCH  25  27
ATOM     27  C   UNL     1     -23.321 -19.343 146.031  1.00  0.00     0.097 C 
ATOM     28  C   UNL     1     -24.574 -20.207 146.045  1.00  0.00     0.014 C 
ENDBRANCH  25  27
ENDBRANCH   2  25
TORSDOF 5
ENDMDL
MODEL 20
REMARK VINA RESULT:    -7.924      3.379      5.981
REMARK INTER + INTRA:         -10.913
REMARK INTER:                 -10.288
REMARK INTRA:                  -0.624
REMARK UNBOUND:                -0.672
REMARK SMILES CCC(=O)n1cc2c3c(cccc31)C1=C[C@@H](C(=O)N(CC)CC)CN(C)[C@@H]1C2
REMARK SMILES IDX 25 1 5 2 27 3 14 4 28 5 16 6 24 7 7 8 9 9 8 10 15 11 13 12
REMARK SMILES IDX 6 13 26 14 10 15 12 16 11 17 17 18 18 19 19 20 20 21 21 22
REMARK SMILES IDX 22 23 23 24 3 25 4 26 2 27 1 28
REMARK H PARENT
ROOT
ATOM      1  N   UNL     1     -24.922 -11.965 144.859  1.00  0.00    -0.298 NA
ATOM      2  N   UNL     1     -25.474 -16.376 148.935  1.00  0.00    -0.287 N 
ATOM      3  C   UNL     1     -25.462 -12.862 145.906  1.00  0.00     0.091 C 
ATOM      4  C   UNL     1     -26.865 -13.452 145.622  1.00  0.00    -0.026 C 
ATOM      5  C   UNL     1     -24.420 -13.985 146.251  1.00  0.00     0.061 C 
ATOM      6  C   UNL     1     -26.884 -12.537 143.305  1.00  0.00     0.116 C 
ATOM      7  C   UNL     1     -25.359 -12.353 143.504  1.00  0.00     0.102 C 
ATOM      8  C   UNL     1     -25.007 -14.904 147.277  1.00  0.00    -0.019 A 
ATOM      9  C   UNL     1     -27.405 -14.336 146.680  1.00  0.00    -0.011 A 
ATOM     10  C   UNL     1     -26.407 -15.005 147.417  1.00  0.00     0.011 A 
ATOM     11  C   UNL     1     -27.509 -13.278 144.454  1.00  0.00    -0.007 C 
ATOM     12  C   UNL     1     -26.705 -15.905 148.440  1.00  0.00     0.056 A 
ATOM     13  C   UNL     1     -24.457 -15.743 148.207  1.00  0.00     0.099 A 
ATOM     14  C   UNL     1     -25.226 -10.562 145.137  1.00  0.00     0.106 C 
ATOM     15  C   UNL     1     -28.739 -14.583 146.991  1.00  0.00     0.009 A 
ATOM     16  C   UNL     1     -28.060 -16.145 148.750  1.00  0.00     0.027 A 
ATOM     17  C   UNL     1     -29.055 -15.474 148.017  1.00  0.00     0.003 A 
ENDROOT
BRANCH   6  18
ATOM     18  C   UNL     1     -27.562 -11.240 142.790  1.00  0.00     0.230 C 
ATOM     19  O   UNL     1     -27.156 -10.682 141.766  1.00  0.00    -0.274 OA
ATOM     20  N   UNL     1     -28.773 -10.858 143.390  1.00  0.00    -0.343 N 
BRANCH  20  21
ATOM     21  C   UNL     1     -28.702 -10.283 144.740  1.00  0.00     0.116 C 
ATOM     22  C   UNL     1     -29.700 -10.887 145.722  1.00  0.00     0.027 C 
ENDBRANCH  20  21
BRANCH  20  23
ATOM     23  C   UNL     1     -29.745 -10.257 142.470  1.00  0.00     0.116 C 
ATOM     24  C   UNL     1     -30.047  -8.796 142.762  1.00  0.00     0.027 C 
ENDBRANCH  20  23
ENDBRANCH   6  18
BRANCH   2  25
ATOM     25  C   UNL     1     -25.181 -17.305 149.963  1.00  0.00     0.230 C 
ATOM     26  O   UNL     1     -25.770 -18.383 149.968  1.00  0.00    -0.274 OA
BRANCH  25  27
ATOM     27  C   UNL     1     -24.159 -16.898 150.988  1.00  0.00     0.097 C 
ATOM     28  C   UNL     1     -22.781 -17.460 150.665  1.00  0.00     0.014 C 
ENDBRANCH  25  27
ENDBRANCH   2  25
TORSDOF 5
ENDMDL
