MODEL 1
REMARK VINA RESULT:    -9.491      0.000      0.000
REMARK INTER + INTRA:         -12.880
REMARK INTER:                 -12.266
REMARK INTRA:                  -0.614
REMARK UNBOUND:                -0.614
REMARK SMILES CCC(=O)n1cc2c3c(cccc31)C1=C[C@@H](C(=O)N(CC)CC)CN(C)[C@@H]1C2
REMARK SMILES IDX 25 1 5 2 27 3 14 4 28 5 16 6 24 7 7 8 9 9 8 10 15 11 13 12
REMARK SMILES IDX 6 13 26 14 10 15 12 16 11 17 17 18 18 19 19 20 20 21 21 22
REMARK SMILES IDX 22 23 23 24 3 25 4 26 2 27 1 28
REMARK H PARENT
ROOT
ATOM      1  N   UNL     1     124.843 133.180 120.557  1.00  0.00    -0.298 NA
ATOM      2  N   UNL     1     122.350 134.123 125.967  1.00  0.00    -0.287 N 
ATOM      3  C   UNL     1     124.661 133.408 122.009  1.00  0.00     0.091 C 
ATOM      4  C   UNL     1     125.526 134.536 122.621  1.00  0.00    -0.026 C 
ATOM      5  C   UNL     1     123.138 133.600 122.343  1.00  0.00     0.061 C 
ATOM      6  C   UNL     1     126.337 135.260 120.379  1.00  0.00     0.116 C 
ATOM      7  C   UNL     1     125.157 134.423 119.826  1.00  0.00     0.102 C 
ATOM      8  C   UNL     1     122.986 133.874 123.807  1.00  0.00    -0.019 A 
ATOM      9  C   UNL     1     125.350 134.749 124.076  1.00  0.00    -0.011 A 
ATOM     10  C   UNL     1     124.065 134.405 124.542  1.00  0.00     0.011 A 
ATOM     11  C   UNL     1     126.299 135.350 121.880  1.00  0.00    -0.007 C 
ATOM     12  C   UNL     1     123.686 134.555 125.877  1.00  0.00     0.056 A 
ATOM     13  C   UNL     1     121.952 133.710 124.688  1.00  0.00     0.099 A 
ATOM     14  C   UNL     1     125.833 132.138 120.291  1.00  0.00     0.106 C 
ATOM     15  C   UNL     1     126.274 135.256 124.985  1.00  0.00     0.009 A 
ATOM     16  C   UNL     1     124.631 135.067 126.790  1.00  0.00     0.027 A 
ATOM     17  C   UNL     1     125.914 135.407 126.324  1.00  0.00     0.003 A 
ENDROOT
BRANCH   6  18
ATOM     18  C   UNL     1     127.677 134.905 119.682  1.00  0.00     0.230 C 
ATOM     19  O   UNL     1     128.582 134.342 120.307  1.00  0.00    -0.274 OA
ATOM     20  N   UNL     1     127.739 135.037 118.285  1.00  0.00    -0.343 N 
BRANCH  20  21
ATOM     21  C   UNL     1     127.819 136.400 117.742  1.00  0.00     0.116 C 
ATOM     22  C   UNL     1     128.881 137.269 118.408  1.00  0.00     0.027 C 
ENDBRANCH  20  21
BRANCH  20  23
ATOM     23  C   UNL     1     128.543 134.012 117.612  1.00  0.00     0.116 C 
ATOM     24  C   UNL     1     127.790 132.720 117.339  1.00  0.00     0.027 C 
ENDBRANCH  20  23
ENDBRANCH   6  18
BRANCH   2  25
ATOM     25  C   UNL     1     121.466 134.063 127.073  1.00  0.00     0.230 C 
ATOM     26  O   UNL     1     120.486 133.324 127.004  1.00  0.00    -0.274 OA
BRANCH  25  27
ATOM     27  C   UNL     1     121.793 134.920 128.263  1.00  0.00     0.097 C 
ATOM     28  C   UNL     1     121.074 134.443 129.517  1.00  0.00     0.014 C 
ENDBRANCH  25  27
ENDBRANCH   2  25
TORSDOF 5
ENDMDL
MODEL 2
REMARK VINA RESULT:    -9.063      1.105      1.474
REMARK INTER + INTRA:         -12.325
REMARK INTER:                 -12.442
REMARK INTRA:                   0.116
REMARK UNBOUND:                -0.614
REMARK SMILES CCC(=O)n1cc2c3c(cccc31)C1=C[C@@H](C(=O)N(CC)CC)CN(C)[C@@H]1C2
REMARK SMILES IDX 25 1 5 2 27 3 14 4 28 5 16 6 24 7 7 8 9 9 8 10 15 11 13 12
REMARK SMILES IDX 6 13 26 14 10 15 12 16 11 17 17 18 18 19 19 20 20 21 21 22
REMARK SMILES IDX 22 23 23 24 3 25 4 26 2 27 1 28
REMARK H PARENT
ROOT
ATOM      1  N   UNL     1     124.664 132.793 120.152  1.00  0.00    -0.298 NA
ATOM      2  N   UNL     1     122.395 134.273 125.540  1.00  0.00    -0.287 N 
ATOM      3  C   UNL     1     124.539 133.237 121.559  1.00  0.00     0.091 C 
ATOM      4  C   UNL     1     125.251 134.568 121.905  1.00  0.00    -0.026 C 
ATOM      5  C   UNL     1     123.029 133.258 121.991  1.00  0.00     0.061 C 
ATOM      6  C   UNL     1     125.796 135.007 119.514  1.00  0.00     0.116 C 
ATOM      7  C   UNL     1     124.732 133.924 119.208  1.00  0.00     0.102 C 
ATOM      8  C   UNL     1     122.926 133.754 123.400  1.00  0.00    -0.019 A 
ATOM      9  C   UNL     1     125.134 134.998 123.317  1.00  0.00    -0.011 A 
ATOM     10  C   UNL     1     123.952 134.554 123.944  1.00  0.00     0.011 A 
ATOM     11  C   UNL     1     125.837 135.347 120.978  1.00  0.00    -0.007 C 
ATOM     12  C   UNL     1     123.637 134.874 125.265  1.00  0.00     0.056 A 
ATOM     13  C   UNL     1     121.989 133.593 124.383  1.00  0.00     0.099 A 
ATOM     14  C   UNL     1     125.789 131.877 119.970  1.00  0.00     0.106 C 
ATOM     15  C   UNL     1     126.021 135.783 124.049  1.00  0.00     0.009 A 
ATOM     16  C   UNL     1     124.544 135.667 125.999  1.00  0.00     0.027 A 
ATOM     17  C   UNL     1     125.725 136.106 125.373  1.00  0.00     0.003 A 
ENDROOT
BRANCH   6  18
ATOM     18  C   UNL     1     127.129 134.738 118.768  1.00  0.00     0.230 C 
ATOM     19  O   UNL     1     127.256 133.744 118.046  1.00  0.00    -0.274 OA
ATOM     20  N   UNL     1     128.089 135.763 118.762  1.00  0.00    -0.343 N 
BRANCH  20  21
ATOM     21  C   UNL     1     128.834 135.994 120.007  1.00  0.00     0.116 C 
ATOM     22  C   UNL     1     129.338 134.717 120.672  1.00  0.00     0.027 C 
ENDBRANCH  20  21
BRANCH  20  23
ATOM     23  C   UNL     1     128.846 135.880 117.511  1.00  0.00     0.116 C 
ATOM     24  C   UNL     1     130.320 136.199 117.711  1.00  0.00     0.027 C 
ENDBRANCH  20  23
ENDBRANCH   6  18
BRANCH   2  25
ATOM     25  C   UNL     1     121.602 134.274 126.714  1.00  0.00     0.230 C 
ATOM     26  O   UNL     1     120.560 133.624 126.722  1.00  0.00    -0.274 OA
BRANCH  25  27
ATOM     27  C   UNL     1     122.099 135.084 127.879  1.00  0.00     0.097 C 
ATOM     28  C   UNL     1     121.412 134.685 129.178  1.00  0.00     0.014 C 
ENDBRANCH  25  27
ENDBRANCH   2  25
TORSDOF 5
ENDMDL
MODEL 3
REMARK VINA RESULT:    -8.962      1.780      8.479
REMARK INTER + INTRA:         -12.196
REMARK INTER:                 -11.596
REMARK INTRA:                  -0.599
REMARK UNBOUND:                -0.614
REMARK SMILES CCC(=O)n1cc2c3c(cccc31)C1=C[C@@H](C(=O)N(CC)CC)CN(C)[C@@H]1C2
REMARK SMILES IDX 25 1 5 2 27 3 14 4 28 5 16 6 24 7 7 8 9 9 8 10 15 11 13 12
REMARK SMILES IDX 6 13 26 14 10 15 12 16 11 17 17 18 18 19 19 20 20 21 21 22
REMARK SMILES IDX 22 23 23 24 3 25 4 26 2 27 1 28
REMARK H PARENT
ROOT
ATOM      1  N   UNL     1     126.040 134.415 125.091  1.00  0.00    -0.298 NA
ATOM      2  N   UNL     1     127.849 133.863 119.365  1.00  0.00    -0.287 N 
ATOM      3  C   UNL     1     126.149 133.982 123.680  1.00  0.00     0.091 C 
ATOM      4  C   UNL     1     124.828 133.993 122.873  1.00  0.00    -0.026 C 
ATOM      5  C   UNL     1     127.280 134.791 122.948  1.00  0.00     0.061 C 
ATOM      6  C   UNL     1     123.595 135.110 124.729  1.00  0.00     0.116 C 
ATOM      7  C   UNL     1     125.001 135.444 125.287  1.00  0.00     0.102 C 
ATOM      8  C   UNL     1     127.339 134.368 121.513  1.00  0.00    -0.019 A 
ATOM      9  C   UNL     1     124.942 133.545 121.467  1.00  0.00    -0.011 A 
ATOM     10  C   UNL     1     126.208 133.792 120.900  1.00  0.00     0.011 A 
ATOM     11  C   UNL     1     123.674 134.480 123.365  1.00  0.00    -0.007 C 
ATOM     12  C   UNL     1     126.514 133.470 119.577  1.00  0.00     0.056 A 
ATOM     13  C   UNL     1     128.325 134.404 120.566  1.00  0.00     0.099 A 
ATOM     14  C   UNL     1     125.846 133.281 125.993  1.00  0.00     0.106 C 
ATOM     15  C   UNL     1     123.961 132.955 120.674  1.00  0.00     0.009 A 
ATOM     16  C   UNL     1     125.515 132.869 118.783  1.00  0.00     0.027 A 
ATOM     17  C   UNL     1     124.252 132.621 119.351  1.00  0.00     0.003 A 
ENDROOT
BRANCH   6  18
ATOM     18  C   UNL     1     122.684 134.461 125.803  1.00  0.00     0.230 C 
ATOM     19  O   UNL     1     122.531 133.236 125.842  1.00  0.00    -0.274 OA
ATOM     20  N   UNL     1     122.229 135.279 126.851  1.00  0.00    -0.343 N 
BRANCH  20  21
ATOM     21  C   UNL     1     121.168 136.245 126.537  1.00  0.00     0.116 C 
ATOM     22  C   UNL     1     121.676 137.535 125.901  1.00  0.00     0.027 C 
ENDBRANCH  20  21
BRANCH  20  23
ATOM     23  C   UNL     1     122.145 134.609 128.153  1.00  0.00     0.116 C 
ATOM     24  C   UNL     1     120.721 134.354 128.623  1.00  0.00     0.027 C 
ENDBRANCH  20  23
ENDBRANCH   6  18
BRANCH   2  25
ATOM     25  C   UNL     1     128.668 133.783 118.212  1.00  0.00     0.230 C 
ATOM     26  O   UNL     1     129.278 132.738 117.995  1.00  0.00    -0.274 OA
BRANCH  25  27
ATOM     27  C   UNL     1     128.736 134.997 117.328  1.00  0.00     0.097 C 
ATOM     28  C   UNL     1     129.895 135.907 117.707  1.00  0.00     0.014 C 
ENDBRANCH  25  27
ENDBRANCH   2  25
TORSDOF 5
ENDMDL
MODEL 4
REMARK VINA RESULT:    -8.896      1.345      1.681
REMARK INTER + INTRA:         -12.110
REMARK INTER:                 -11.650
REMARK INTRA:                  -0.460
REMARK UNBOUND:                -0.614
REMARK SMILES CCC(=O)n1cc2c3c(cccc31)C1=C[C@@H](C(=O)N(CC)CC)CN(C)[C@@H]1C2
REMARK SMILES IDX 25 1 5 2 27 3 14 4 28 5 16 6 24 7 7 8 9 9 8 10 15 11 13 12
REMARK SMILES IDX 6 13 26 14 10 15 12 16 11 17 17 18 18 19 19 20 20 21 21 22
REMARK SMILES IDX 22 23 23 24 3 25 4 26 2 27 1 28
REMARK H PARENT
ROOT
ATOM      1  N   UNL     1     124.304 132.466 120.616  1.00  0.00    -0.298 NA
ATOM      2  N   UNL     1     122.599 134.923 125.853  1.00  0.00    -0.287 N 
ATOM      3  C   UNL     1     124.327 133.125 121.942  1.00  0.00     0.091 C 
ATOM      4  C   UNL     1     125.162 134.426 122.027  1.00  0.00    -0.026 C 
ATOM      5  C   UNL     1     122.864 133.340 122.470  1.00  0.00     0.061 C 
ATOM      6  C   UNL     1     125.540 134.456 119.564  1.00  0.00     0.116 C 
ATOM      7  C   UNL     1     124.377 133.434 119.505  1.00  0.00     0.102 C 
ATOM      8  C   UNL     1     122.914 134.047 123.788  1.00  0.00    -0.019 A 
ATOM      9  C   UNL     1     125.193 135.071 123.359  1.00  0.00    -0.011 A 
ATOM     10  C   UNL     1     124.037 134.829 124.128  1.00  0.00     0.011 A 
ATOM     11  C   UNL     1     125.726 135.005 120.952  1.00  0.00    -0.007 C 
ATOM     12  C   UNL     1     123.856 135.368 125.402  1.00  0.00     0.056 A 
ATOM     13  C   UNL     1     122.051 134.116 124.847  1.00  0.00     0.099 A 
ATOM     14  C   UNL     1     125.339 131.441 120.501  1.00  0.00     0.106 C 
ATOM     15  C   UNL     1     126.192 135.878 123.897  1.00  0.00     0.009 A 
ATOM     16  C   UNL     1     124.875 136.181 125.939  1.00  0.00     0.027 A 
ATOM     17  C   UNL     1     126.031 136.419 125.172  1.00  0.00     0.003 A 
ENDROOT
BRANCH   6  18
ATOM     18  C   UNL     1     126.784 133.964 118.778  1.00  0.00     0.230 C 
ATOM     19  O   UNL     1     126.663 133.168 117.843  1.00  0.00    -0.274 OA
ATOM     20  N   UNL     1     128.004 134.619 119.016  1.00  0.00    -0.343 N 
BRANCH  20  21
ATOM     21  C   UNL     1     128.689 134.325 120.282  1.00  0.00     0.116 C 
ATOM     22  C   UNL     1     129.450 135.513 120.863  1.00  0.00     0.027 C 
ENDBRANCH  20  21
BRANCH  20  23
ATOM     23  C   UNL     1     128.852 134.775 117.830  1.00  0.00     0.116 C 
ATOM     24  C   UNL     1     128.541 136.018 117.010  1.00  0.00     0.027 C 
ENDBRANCH  20  23
ENDBRANCH   6  18
BRANCH   2  25
ATOM     25  C   UNL     1     121.907 135.168 127.065  1.00  0.00     0.230 C 
ATOM     26  O   UNL     1     122.120 136.221 127.663  1.00  0.00    -0.274 OA
BRANCH  25  27
ATOM     27  C   UNL     1     120.952 134.109 127.540  1.00  0.00     0.097 C 
ATOM     28  C   UNL     1     120.656 134.240 129.027  1.00  0.00     0.014 C 
ENDBRANCH  25  27
ENDBRANCH   2  25
TORSDOF 5
ENDMDL
MODEL 5
REMARK VINA RESULT:    -8.825      5.540      7.482
REMARK INTER + INTRA:         -12.018
REMARK INTER:                 -11.519
REMARK INTRA:                  -0.499
REMARK UNBOUND:                -0.614
REMARK SMILES CCC(=O)n1cc2c3c(cccc31)C1=C[C@@H](C(=O)N(CC)CC)CN(C)[C@@H]1C2
REMARK SMILES IDX 25 1 5 2 27 3 14 4 28 5 16 6 24 7 7 8 9 9 8 10 15 11 13 12
REMARK SMILES IDX 6 13 26 14 10 15 12 16 11 17 17 18 18 19 19 20 20 21 21 22
REMARK SMILES IDX 22 23 23 24 3 25 4 26 2 27 1 28
REMARK H PARENT
ROOT
ATOM      1  N   UNL     1     124.086 141.037 125.589  1.00  0.00    -0.298 NA
ATOM      2  N   UNL     1     122.722 135.200 126.252  1.00  0.00    -0.287 N 
ATOM      3  C   UNL     1     124.120 139.559 125.502  1.00  0.00     0.091 C 
ATOM      4  C   UNL     1     125.478 138.901 125.845  1.00  0.00    -0.026 C 
ATOM      5  C   UNL     1     122.946 138.938 126.340  1.00  0.00     0.061 C 
ATOM      6  C   UNL     1     126.444 141.069 126.603  1.00  0.00     0.116 C 
ATOM      7  C   UNL     1     124.976 141.560 126.643  1.00  0.00     0.102 C 
ATOM      8  C   UNL     1     123.030 137.444 126.273  1.00  0.00    -0.019 A 
ATOM      9  C   UNL     1     125.508 137.424 125.742  1.00  0.00    -0.011 A 
ATOM     10  C   UNL     1     124.259 136.818 125.984  1.00  0.00     0.011 A 
ATOM     11  C   UNL     1     126.529 139.595 126.317  1.00  0.00    -0.007 C 
ATOM     12  C   UNL     1     124.080 135.434 125.961  1.00  0.00     0.056 A 
ATOM     13  C   UNL     1     122.108 136.447 126.434  1.00  0.00     0.099 A 
ATOM     14  C   UNL     1     124.362 141.664 124.297  1.00  0.00     0.106 C 
ATOM     15  C   UNL     1     126.602 136.608 125.467  1.00  0.00     0.009 A 
ATOM     16  C   UNL     1     125.193 134.617 125.679  1.00  0.00     0.027 A 
ATOM     17  C   UNL     1     126.439 135.223 125.434  1.00  0.00     0.003 A 
ENDROOT
BRANCH   6  18
ATOM     18  C   UNL     1     127.360 142.041 125.813  1.00  0.00     0.230 C 
ATOM     19  O   UNL     1     128.138 141.614 124.954  1.00  0.00    -0.274 OA
ATOM     20  N   UNL     1     127.114 143.417 125.944  1.00  0.00    -0.343 N 
BRANCH  20  21
ATOM     21  C   UNL     1     127.524 144.056 127.202  1.00  0.00     0.116 C 
ATOM     22  C   UNL     1     126.358 144.523 128.067  1.00  0.00     0.027 C 
ENDBRANCH  20  21
BRANCH  20  23
ATOM     23  C   UNL     1     127.318 144.192 124.716  1.00  0.00     0.116 C 
ATOM     24  C   UNL     1     127.695 145.645 124.960  1.00  0.00     0.027 C 
ENDBRANCH  20  23
ENDBRANCH   6  18
BRANCH   2  25
ATOM     25  C   UNL     1     121.993 133.991 126.367  1.00  0.00     0.230 C 
ATOM     26  O   UNL     1     122.469 132.967 125.884  1.00  0.00    -0.274 OA
BRANCH  25  27
ATOM     27  C   UNL     1     120.671 134.050 127.080  1.00  0.00     0.097 C 
ATOM     28  C   UNL     1     120.846 134.108 128.591  1.00  0.00     0.014 C 
ENDBRANCH  25  27
ENDBRANCH   2  25
TORSDOF 5
ENDMDL
MODEL 6
REMARK VINA RESULT:    -8.821      1.367      2.857
REMARK INTER + INTRA:         -12.013
REMARK INTER:                 -11.424
REMARK INTRA:                  -0.589
REMARK UNBOUND:                -0.614
REMARK SMILES CCC(=O)n1cc2c3c(cccc31)C1=C[C@@H](C(=O)N(CC)CC)CN(C)[C@@H]1C2
REMARK SMILES IDX 25 1 5 2 27 3 14 4 28 5 16 6 24 7 7 8 9 9 8 10 15 11 13 12
REMARK SMILES IDX 6 13 26 14 10 15 12 16 11 17 17 18 18 19 19 20 20 21 21 22
REMARK SMILES IDX 22 23 23 24 3 25 4 26 2 27 1 28
REMARK H PARENT
ROOT
ATOM      1  N   UNL     1     127.655 135.547 122.998  1.00  0.00    -0.298 NA
ATOM      2  N   UNL     1     122.542 134.221 125.907  1.00  0.00    -0.287 N 
ATOM      3  C   UNL     1     126.236 135.250 123.297  1.00  0.00     0.091 C 
ATOM      4  C   UNL     1     125.579 134.164 122.410  1.00  0.00    -0.026 C 
ATOM      5  C   UNL     1     126.055 134.938 124.825  1.00  0.00     0.061 C 
ATOM      6  C   UNL     1     127.755 133.587 121.342  1.00  0.00     0.116 C 
ATOM      7  C   UNL     1     128.391 134.359 122.525  1.00  0.00     0.102 C 
ATOM      8  C   UNL     1     124.622 134.597 125.093  1.00  0.00    -0.019 A 
ATOM      9  C   UNL     1     124.156 133.884 122.705  1.00  0.00    -0.011 A 
ATOM     10  C   UNL     1     123.803 134.117 124.050  1.00  0.00     0.011 A 
ATOM     11  C   UNL     1     126.268 133.437 121.513  1.00  0.00    -0.007 C 
ATOM     12  C   UNL     1     122.517 133.889 124.539  1.00  0.00     0.056 A 
ATOM     13  C   UNL     1     123.839 134.653 126.213  1.00  0.00     0.099 A 
ATOM     14  C   UNL     1     127.792 136.666 122.068  1.00  0.00     0.106 C 
ATOM     15  C   UNL     1     123.178 133.410 121.834  1.00  0.00     0.009 A 
ATOM     16  C   UNL     1     121.534 133.411 123.648  1.00  0.00     0.027 A 
ATOM     17  C   UNL     1     121.885 133.182 122.305  1.00  0.00     0.003 A 
ENDROOT
BRANCH   6  18
ATOM     18  C   UNL     1     128.308 134.064 119.973  1.00  0.00     0.230 C 
ATOM     19  O   UNL     1     129.524 134.082 119.758  1.00  0.00    -0.274 OA
ATOM     20  N   UNL     1     127.387 134.256 118.930  1.00  0.00    -0.343 N 
BRANCH  20  21
ATOM     21  C   UNL     1     126.532 135.449 118.999  1.00  0.00     0.116 C 
ATOM     22  C   UNL     1     125.046 135.155 118.829  1.00  0.00     0.027 C 
ENDBRANCH  20  21
BRANCH  20  23
ATOM     23  C   UNL     1     127.884 133.878 117.603  1.00  0.00     0.116 C 
ATOM     24  C   UNL     1     127.786 132.389 117.310  1.00  0.00     0.027 C 
ENDBRANCH  20  23
ENDBRANCH   6  18
BRANCH   2  25
ATOM     25  C   UNL     1     121.524 134.174 126.892  1.00  0.00     0.230 C 
ATOM     26  O   UNL     1     120.499 133.542 126.651  1.00  0.00    -0.274 OA
BRANCH  25  27
ATOM     27  C   UNL     1     121.776 134.914 128.177  1.00  0.00     0.097 C 
ATOM     28  C   UNL     1     120.958 134.343 129.326  1.00  0.00     0.014 C 
ENDBRANCH  25  27
ENDBRANCH   2  25
TORSDOF 5
ENDMDL
MODEL 7
REMARK VINA RESULT:    -8.759      2.373      8.616
REMARK INTER + INTRA:         -11.933
REMARK INTER:                 -11.164
REMARK INTRA:                  -0.769
REMARK UNBOUND:                -0.614
REMARK SMILES CCC(=O)n1cc2c3c(cccc31)C1=C[C@@H](C(=O)N(CC)CC)CN(C)[C@@H]1C2
REMARK SMILES IDX 25 1 5 2 27 3 14 4 28 5 16 6 24 7 7 8 9 9 8 10 15 11 13 12
REMARK SMILES IDX 6 13 26 14 10 15 12 16 11 17 17 18 18 19 19 20 20 21 21 22
REMARK SMILES IDX 22 23 23 24 3 25 4 26 2 27 1 28
REMARK H PARENT
ROOT
ATOM      1  N   UNL     1     126.392 136.260 125.014  1.00  0.00    -0.298 NA
ATOM      2  N   UNL     1     129.626 135.877 119.938  1.00  0.00    -0.287 N 
ATOM      3  C   UNL     1     127.024 135.749 123.776  1.00  0.00     0.091 C 
ATOM      4  C   UNL     1     126.072 135.034 122.786  1.00  0.00    -0.026 C 
ATOM      5  C   UNL     1     127.842 136.889 123.071  1.00  0.00     0.061 C 
ATOM      6  C   UNL     1     124.061 135.676 124.111  1.00  0.00     0.116 C 
ATOM      7  C   UNL     1     125.000 136.699 124.797  1.00  0.00     0.102 C 
ATOM      8  C   UNL     1     128.432 136.360 121.801  1.00  0.00    -0.019 A 
ATOM      9  C   UNL     1     126.713 134.513 121.558  1.00  0.00    -0.011 A 
ATOM     10  C   UNL     1     127.849 135.247 121.162  1.00  0.00     0.011 A 
ATOM     11  C   UNL     1     124.738 134.985 122.960  1.00  0.00    -0.007 C 
ATOM     12  C   UNL     1     128.581 134.936 120.016  1.00  0.00     0.056 A 
ATOM     13  C   UNL     1     129.509 136.730 121.044  1.00  0.00     0.099 A 
ATOM     14  C   UNL     1     126.484 135.295 126.109  1.00  0.00     0.106 C 
ATOM     15  C   UNL     1     126.311 133.435 120.774  1.00  0.00     0.009 A 
ATOM     16  C   UNL     1     128.168 133.840 119.231  1.00  0.00     0.027 A 
ATOM     17  C   UNL     1     127.036 133.106 119.628  1.00  0.00     0.003 A 
ENDROOT
BRANCH   6  18
ATOM     18  C   UNL     1     123.279 134.823 125.144  1.00  0.00     0.230 C 
ATOM     19  O   UNL     1     123.358 133.590 125.130  1.00  0.00    -0.274 OA
ATOM     20  N   UNL     1     122.671 135.496 126.216  1.00  0.00    -0.343 N 
BRANCH  20  21
ATOM     21  C   UNL     1     121.449 136.259 125.924  1.00  0.00     0.116 C 
ATOM     22  C   UNL     1     121.658 137.769 125.889  1.00  0.00     0.027 C 
ENDBRANCH  20  21
BRANCH  20  23
ATOM     23  C   UNL     1     122.703 134.767 127.488  1.00  0.00     0.116 C 
ATOM     24  C   UNL     1     121.326 134.455 128.055  1.00  0.00     0.027 C 
ENDBRANCH  20  23
ENDBRANCH   6  18
BRANCH   2  25
ATOM     25  C   UNL     1     130.660 136.039 118.983  1.00  0.00     0.230 C 
ATOM     26  O   UNL     1     130.406 136.629 117.935  1.00  0.00    -0.274 OA
BRANCH  25  27
ATOM     27  C   UNL     1     132.008 135.470 119.324  1.00  0.00     0.097 C 
ATOM     28  C   UNL     1     132.776 136.372 120.280  1.00  0.00     0.014 C 
ENDBRANCH  25  27
ENDBRANCH   2  25
TORSDOF 5
ENDMDL
MODEL 8
REMARK VINA RESULT:    -8.334      2.858      8.409
REMARK INTER + INTRA:         -11.384
REMARK INTER:                 -10.894
REMARK INTRA:                  -0.490
REMARK UNBOUND:                -0.614
REMARK SMILES CCC(=O)n1cc2c3c(cccc31)C1=C[C@@H](C(=O)N(CC)CC)CN(C)[C@@H]1C2
REMARK SMILES IDX 25 1 5 2 27 3 14 4 28 5 16 6 24 7 7 8 9 9 8 10 15 11 13 12
REMARK SMILES IDX 6 13 26 14 10 15 12 16 11 17 17 18 18 19 19 20 20 21 21 22
REMARK SMILES IDX 22 23 23 24 3 25 4 26 2 27 1 28
REMARK H PARENT
ROOT
ATOM      1  N   UNL     1     125.662 133.363 122.036  1.00  0.00    -0.298 NA
ATOM      2  N   UNL     1     130.824 135.795 120.083  1.00  0.00    -0.287 N 
ATOM      3  C   UNL     1     126.723 134.335 121.688  1.00  0.00     0.091 C 
ATOM      4  C   UNL     1     127.104 135.338 122.804  1.00  0.00    -0.026 C 
ATOM      5  C   UNL     1     127.985 133.587 121.128  1.00  0.00     0.061 C 
ATOM      6  C   UNL     1     125.683 134.159 124.477  1.00  0.00     0.116 C 
ATOM      7  C   UNL     1     125.688 132.988 123.463  1.00  0.00     0.102 C 
ATOM      8  C   UNL     1     129.059 134.586 120.827  1.00  0.00    -0.019 A 
ATOM      9  C   UNL     1     128.155 136.317 122.444  1.00  0.00    -0.011 A 
ATOM     10  C   UNL     1     129.063 135.836 121.479  1.00  0.00     0.011 A 
ATOM     11  C   UNL     1     126.609 135.266 124.053  1.00  0.00    -0.007 C 
ATOM     12  C   UNL     1     130.143 136.592 121.022  1.00  0.00     0.056 A 
ATOM     13  C   UNL     1     130.135 134.578 119.983  1.00  0.00     0.099 A 
ATOM     14  C   UNL     1     124.339 133.836 121.632  1.00  0.00     0.106 C 
ATOM     15  C   UNL     1     128.345 137.597 122.956  1.00  0.00     0.009 A 
ATOM     16  C   UNL     1     130.325 137.889 121.545  1.00  0.00     0.027 A 
ATOM     17  C   UNL     1     129.416 138.369 122.506  1.00  0.00     0.003 A 
ENDROOT
BRANCH   6  18
ATOM     18  C   UNL     1     124.246 134.519 124.941  1.00  0.00     0.230 C 
ATOM     19  O   UNL     1     123.336 133.688 124.870  1.00  0.00    -0.274 OA
ATOM     20  N   UNL     1     124.072 135.724 125.641  1.00  0.00    -0.343 N 
BRANCH  20  21
ATOM     21  C   UNL     1     124.131 136.969 124.863  1.00  0.00     0.116 C 
ATOM     22  C   UNL     1     124.892 138.094 125.555  1.00  0.00     0.027 C 
ENDBRANCH  20  21
BRANCH  20  23
ATOM     23  C   UNL     1     123.072 135.665 126.713  1.00  0.00     0.116 C 
ATOM     24  C   UNL     1     121.763 136.360 126.373  1.00  0.00     0.027 C 
ENDBRANCH  20  23
ENDBRANCH   6  18
BRANCH   2  25
ATOM     25  C   UNL     1     131.987 136.052 119.316  1.00  0.00     0.230 C 
ATOM     26  O   UNL     1     131.877 136.161 118.097  1.00  0.00    -0.274 OA
BRANCH  25  27
ATOM     27  C   UNL     1     133.288 136.174 120.059  1.00  0.00     0.097 C 
ATOM     28  C   UNL     1     134.475 135.794 119.185  1.00  0.00     0.014 C 
ENDBRANCH  25  27
ENDBRANCH   2  25
TORSDOF 5
ENDMDL
MODEL 9
REMARK VINA RESULT:    -8.280      1.415      3.103
REMARK INTER + INTRA:         -11.314
REMARK INTER:                 -10.522
REMARK INTRA:                  -0.792
REMARK UNBOUND:                -0.614
REMARK SMILES CCC(=O)n1cc2c3c(cccc31)C1=C[C@@H](C(=O)N(CC)CC)CN(C)[C@@H]1C2
REMARK SMILES IDX 25 1 5 2 27 3 14 4 28 5 16 6 24 7 7 8 9 9 8 10 15 11 13 12
REMARK SMILES IDX 6 13 26 14 10 15 12 16 11 17 17 18 18 19 19 20 20 21 21 22
REMARK SMILES IDX 22 23 23 24 3 25 4 26 2 27 1 28
REMARK H PARENT
ROOT
ATOM      1  N   UNL     1     127.276 135.162 122.009  1.00  0.00    -0.298 NA
ATOM      2  N   UNL     1     122.642 134.094 125.718  1.00  0.00    -0.287 N 
ATOM      3  C   UNL     1     125.910 134.952 122.538  1.00  0.00     0.091 C 
ATOM      4  C   UNL     1     125.039 133.937 121.758  1.00  0.00    -0.026 C 
ATOM      5  C   UNL     1     125.966 134.608 124.070  1.00  0.00     0.061 C 
ATOM      6  C   UNL     1     126.960 133.248 120.327  1.00  0.00     0.116 C 
ATOM      7  C   UNL     1     127.838 133.942 121.397  1.00  0.00     0.102 C 
ATOM      8  C   UNL     1     124.578 134.355 124.570  1.00  0.00    -0.019 A 
ATOM      9  C   UNL     1     123.669 133.743 122.284  1.00  0.00    -0.011 A 
ATOM     10  C   UNL     1     123.565 133.960 123.672  1.00  0.00     0.011 A 
ATOM     11  C   UNL     1     125.516 133.192 120.744  1.00  0.00    -0.007 C 
ATOM     12  C   UNL     1     122.365 133.803 124.368  1.00  0.00     0.056 A 
ATOM     13  C   UNL     1     124.000 134.431 125.807  1.00  0.00     0.099 A 
ATOM     14  C   UNL     1     127.333 136.296 121.088  1.00  0.00     0.106 C 
ATOM     15  C   UNL     1     122.529 133.359 121.583  1.00  0.00     0.009 A 
ATOM     16  C   UNL     1     121.216 133.418 123.649  1.00  0.00     0.027 A 
ATOM     17  C   UNL     1     121.321 133.204 122.262  1.00  0.00     0.003 A 
ENDROOT
BRANCH   6  18
ATOM     18  C   UNL     1     127.308 133.727 118.892  1.00  0.00     0.230 C 
ATOM     19  O   UNL     1     126.423 134.126 118.130  1.00  0.00    -0.274 OA
ATOM     20  N   UNL     1     128.666 133.901 118.577  1.00  0.00    -0.343 N 
BRANCH  20  21
ATOM     21  C   UNL     1     129.468 132.688 118.366  1.00  0.00     0.116 C 
ATOM     22  C   UNL     1     128.873 131.723 117.345  1.00  0.00     0.027 C 
ENDBRANCH  20  21
BRANCH  20  23
ATOM     23  C   UNL     1     128.944 135.036 117.690  1.00  0.00     0.116 C 
ATOM     24  C   UNL     1     130.134 135.878 118.122  1.00  0.00     0.027 C 
ENDBRANCH  20  23
ENDBRANCH   6  18
BRANCH   2  25
ATOM     25  C   UNL     1     121.804 134.086 126.860  1.00  0.00     0.230 C 
ATOM     26  O   UNL     1     120.914 133.243 126.932  1.00  0.00    -0.274 OA
BRANCH  25  27
ATOM     27  C   UNL     1     122.066 135.126 127.913  1.00  0.00     0.097 C 
ATOM     28  C   UNL     1     121.448 134.744 129.251  1.00  0.00     0.014 C 
ENDBRANCH  25  27
ENDBRANCH   2  25
TORSDOF 5
ENDMDL
MODEL 10
REMARK VINA RESULT:    -8.150      1.767      8.362
REMARK INTER + INTRA:         -11.147
REMARK INTER:                 -10.805
REMARK INTRA:                  -0.341
REMARK UNBOUND:                -0.614
REMARK SMILES CCC(=O)n1cc2c3c(cccc31)C1=C[C@@H](C(=O)N(CC)CC)CN(C)[C@@H]1C2
REMARK SMILES IDX 25 1 5 2 27 3 14 4 28 5 16 6 24 7 7 8 9 9 8 10 15 11 13 12
REMARK SMILES IDX 6 13 26 14 10 15 12 16 11 17 17 18 18 19 19 20 20 21 21 22
REMARK SMILES IDX 22 23 23 24 3 25 4 26 2 27 1 28
REMARK H PARENT
ROOT
ATOM      1  N   UNL     1     126.609 136.020 125.288  1.00  0.00    -0.298 NA
ATOM      2  N   UNL     1     128.306 135.354 119.539  1.00  0.00    -0.287 N 
ATOM      3  C   UNL     1     126.745 135.509 123.905  1.00  0.00     0.091 C 
ATOM      4  C   UNL     1     125.416 135.243 123.157  1.00  0.00    -0.026 C 
ATOM      5  C   UNL     1     127.702 136.436 123.073  1.00  0.00     0.061 C 
ATOM      6  C   UNL     1     124.073 136.276 124.984  1.00  0.00     0.116 C 
ATOM      7  C   UNL     1     125.420 136.876 125.458  1.00  0.00     0.102 C 
ATOM      8  C   UNL     1     127.787 135.925 121.669  1.00  0.00    -0.019 A 
ATOM      9  C   UNL     1     125.560 134.719 121.780  1.00  0.00    -0.011 A 
ATOM     10  C   UNL     1     126.749 135.127 121.144  1.00  0.00     0.011 A 
ATOM     11  C   UNL     1     124.213 135.570 123.664  1.00  0.00    -0.007 C 
ATOM     12  C   UNL     1     127.063 134.764 119.834  1.00  0.00     0.056 A 
ATOM     13  C   UNL     1     128.723 136.053 120.680  1.00  0.00     0.099 A 
ATOM     14  C   UNL     1     126.635 134.938 126.271  1.00  0.00     0.106 C 
ATOM     15  C   UNL     1     124.667 133.919 121.071  1.00  0.00     0.009 A 
ATOM     16  C   UNL     1     126.154 133.951 119.126  1.00  0.00     0.027 A 
ATOM     17  C   UNL     1     124.968 133.541 119.763  1.00  0.00     0.003 A 
ENDROOT
BRANCH   6  18
ATOM     18  C   UNL     1     123.316 135.566 126.138  1.00  0.00     0.230 C 
ATOM     19  O   UNL     1     123.660 135.733 127.312  1.00  0.00    -0.274 OA
ATOM     20  N   UNL     1     122.108 134.922 125.824  1.00  0.00    -0.343 N 
BRANCH  20  21
ATOM     21  C   UNL     1     122.195 133.647 125.099  1.00  0.00     0.116 C 
ATOM     22  C   UNL     1     121.590 133.690 123.699  1.00  0.00     0.027 C 
ENDBRANCH  20  21
BRANCH  20  23
ATOM     23  C   UNL     1     121.079 135.018 126.864  1.00  0.00     0.116 C 
ATOM     24  C   UNL     1     120.691 133.679 127.472  1.00  0.00     0.027 C 
ENDBRANCH  20  23
ENDBRANCH   6  18
BRANCH   2  25
ATOM     25  C   UNL     1     129.092 135.325 118.361  1.00  0.00     0.230 C 
ATOM     26  O   UNL     1     130.228 134.860 118.421  1.00  0.00    -0.274 OA
BRANCH  25  27
ATOM     27  C   UNL     1     128.472 135.873 117.106  1.00  0.00     0.097 C 
ATOM     28  C   UNL     1     127.756 137.193 117.360  1.00  0.00     0.014 C 
ENDBRANCH  25  27
ENDBRANCH   2  25
TORSDOF 5
ENDMDL
MODEL 11
REMARK VINA RESULT:    -8.078      1.818      2.324
REMARK INTER + INTRA:         -11.053
REMARK INTER:                 -10.206
REMARK INTRA:                  -0.847
REMARK UNBOUND:                -0.614
REMARK SMILES CCC(=O)n1cc2c3c(cccc31)C1=C[C@@H](C(=O)N(CC)CC)CN(C)[C@@H]1C2
REMARK SMILES IDX 25 1 5 2 27 3 14 4 28 5 16 6 24 7 7 8 9 9 8 10 15 11 13 12
REMARK SMILES IDX 6 13 26 14 10 15 12 16 11 17 17 18 18 19 19 20 20 21 21 22
REMARK SMILES IDX 22 23 23 24 3 25 4 26 2 27 1 28
REMARK H PARENT
ROOT
ATOM      1  N   UNL     1     126.351 133.338 122.944  1.00  0.00    -0.298 NA
ATOM      2  N   UNL     1     121.904 134.705 126.783  1.00  0.00    -0.287 N 
ATOM      3  C   UNL     1     125.527 134.023 123.967  1.00  0.00     0.091 C 
ATOM      4  C   UNL     1     125.288 135.534 123.731  1.00  0.00    -0.026 C 
ATOM      5  C   UNL     1     124.177 133.251 124.186  1.00  0.00     0.061 C 
ATOM      6  C   UNL     1     126.342 135.444 121.475  1.00  0.00     0.116 C 
ATOM      7  C   UNL     1     126.165 133.910 121.596  1.00  0.00     0.102 C 
ATOM      8  C   UNL     1     123.345 133.986 125.189  1.00  0.00    -0.019 A 
ATOM      9  C   UNL     1     124.477 136.215 124.765  1.00  0.00    -0.011 A 
ATOM     10  C   UNL     1     123.551 135.365 125.403  1.00  0.00     0.011 A 
ATOM     11  C   UNL     1     125.683 136.172 122.614  1.00  0.00    -0.007 C 
ATOM     12  C   UNL     1     122.673 135.816 126.389  1.00  0.00     0.056 A 
ATOM     13  C   UNL     1     122.341 133.603 126.035  1.00  0.00     0.099 A 
ATOM     14  C   UNL     1     127.763 133.302 123.319  1.00  0.00     0.106 C 
ATOM     15  C   UNL     1     124.515 137.556 125.138  1.00  0.00     0.009 A 
ATOM     16  C   UNL     1     122.722 137.175 126.761  1.00  0.00     0.027 A 
ATOM     17  C   UNL     1     123.649 138.022 126.127  1.00  0.00     0.003 A 
ENDROOT
BRANCH   6  18
ATOM     18  C   UNL     1     127.791 135.830 121.076  1.00  0.00     0.230 C 
ATOM     19  O   UNL     1     128.395 136.719 121.684  1.00  0.00    -0.274 OA
ATOM     20  N   UNL     1     128.460 134.995 120.166  1.00  0.00    -0.343 N 
BRANCH  20  21
ATOM     21  C   UNL     1     128.052 135.074 118.756  1.00  0.00     0.116 C 
ATOM     22  C   UNL     1     127.804 133.716 118.108  1.00  0.00     0.027 C 
ENDBRANCH  20  21
BRANCH  20  23
ATOM     23  C   UNL     1     129.894 134.834 120.428  1.00  0.00     0.116 C 
ATOM     24  C   UNL     1     130.787 135.534 119.415  1.00  0.00     0.027 C 
ENDBRANCH  20  23
ENDBRANCH   6  18
BRANCH   2  25
ATOM     25  C   UNL     1     120.864 134.587 127.737  1.00  0.00     0.230 C 
ATOM     26  O   UNL     1     119.724 134.359 127.340  1.00  0.00    -0.274 OA
BRANCH  25  27
ATOM     27  C   UNL     1     121.235 134.753 129.184  1.00  0.00     0.097 C 
ATOM     28  C   UNL     1     120.663 133.635 130.046  1.00  0.00     0.014 C 
ENDBRANCH  25  27
ENDBRANCH   2  25
TORSDOF 5
ENDMDL
MODEL 12
REMARK VINA RESULT:    -8.038      1.545      2.974
REMARK INTER + INTRA:         -11.002
REMARK INTER:                 -11.598
REMARK INTRA:                   0.596
REMARK UNBOUND:                -0.614
REMARK SMILES CCC(=O)n1cc2c3c(cccc31)C1=C[C@@H](C(=O)N(CC)CC)CN(C)[C@@H]1C2
REMARK SMILES IDX 25 1 5 2 27 3 14 4 28 5 16 6 24 7 7 8 9 9 8 10 15 11 13 12
REMARK SMILES IDX 6 13 26 14 10 15 12 16 11 17 17 18 18 19 19 20 20 21 21 22
REMARK SMILES IDX 22 23 23 24 3 25 4 26 2 27 1 28
REMARK H PARENT
ROOT
ATOM      1  N   UNL     1     127.546 135.254 122.141  1.00  0.00    -0.298 NA
ATOM      2  N   UNL     1     122.681 134.187 125.542  1.00  0.00    -0.287 N 
ATOM      3  C   UNL     1     126.151 135.013 122.576  1.00  0.00     0.091 C 
ATOM      4  C   UNL     1     125.385 133.921 121.790  1.00  0.00    -0.026 C 
ATOM      5  C   UNL     1     126.101 134.755 124.125  1.00  0.00     0.061 C 
ATOM      6  C   UNL     1     127.436 133.241 120.551  1.00  0.00     0.116 C 
ATOM      7  C   UNL     1     128.200 134.028 121.644  1.00  0.00     0.102 C 
ATOM      8  C   UNL     1     124.689 134.470 124.532  1.00  0.00    -0.019 A 
ATOM      9  C   UNL     1     123.986 133.697 122.222  1.00  0.00    -0.011 A 
ATOM     10  C   UNL     1     123.765 133.984 123.584  1.00  0.00     0.011 A 
ATOM     11  C   UNL     1     125.968 133.144 120.860  1.00  0.00    -0.007 C 
ATOM     12  C   UNL     1     122.522 133.813 124.194  1.00  0.00     0.056 A 
ATOM     13  C   UNL     1     124.013 134.586 125.715  1.00  0.00     0.099 A 
ATOM     14  C   UNL     1     127.630 136.338 121.164  1.00  0.00     0.106 C 
ATOM     15  C   UNL     1     122.920 133.227 121.459  1.00  0.00     0.009 A 
ATOM     16  C   UNL     1     121.448 133.340 123.413  1.00  0.00     0.027 A 
ATOM     17  C   UNL     1     121.669 133.056 122.052  1.00  0.00     0.003 A 
ENDROOT
BRANCH   6  18
ATOM     18  C   UNL     1     127.877 133.656 119.122  1.00  0.00     0.230 C 
ATOM     19  O   UNL     1     127.268 133.241 118.131  1.00  0.00    -0.274 OA
ATOM     20  N   UNL     1     128.830 134.680 119.008  1.00  0.00    -0.343 N 
BRANCH  20  21
ATOM     21  C   UNL     1     130.222 134.343 119.338  1.00  0.00     0.116 C 
ATOM     22  C   UNL     1     131.094 135.555 119.647  1.00  0.00     0.027 C 
ENDBRANCH  20  21
BRANCH  20  23
ATOM     23  C   UNL     1     128.624 135.579 117.868  1.00  0.00     0.116 C 
ATOM     24  C   UNL     1     127.398 136.469 117.999  1.00  0.00     0.027 C 
ENDBRANCH  20  23
ENDBRANCH   6  18
BRANCH   2  25
ATOM     25  C   UNL     1     121.757 134.205 126.616  1.00  0.00     0.230 C 
ATOM     26  O   UNL     1     120.758 133.494 126.545  1.00  0.00    -0.274 OA
BRANCH  25  27
ATOM     27  C   UNL     1     122.069 135.106 127.778  1.00  0.00     0.097 C 
ATOM     28  C   UNL     1     121.348 134.665 129.044  1.00  0.00     0.014 C 
ENDBRANCH  25  27
ENDBRANCH   2  25
TORSDOF 5
ENDMDL
MODEL 13
REMARK VINA RESULT:    -7.711      1.712      3.257
REMARK INTER + INTRA:         -10.578
REMARK INTER:                 -10.571
REMARK INTRA:                  -0.007
REMARK UNBOUND:                -0.614
REMARK SMILES CCC(=O)n1cc2c3c(cccc31)C1=C[C@@H](C(=O)N(CC)CC)CN(C)[C@@H]1C2
REMARK SMILES IDX 25 1 5 2 27 3 14 4 28 5 16 6 24 7 7 8 9 9 8 10 15 11 13 12
REMARK SMILES IDX 6 13 26 14 10 15 12 16 11 17 17 18 18 19 19 20 20 21 21 22
REMARK SMILES IDX 22 23 23 24 3 25 4 26 2 27 1 28
REMARK H PARENT
ROOT
ATOM      1  N   UNL     1     127.327 135.316 121.872  1.00  0.00    -0.298 NA
ATOM      2  N   UNL     1     122.951 134.902 126.000  1.00  0.00    -0.287 N 
ATOM      3  C   UNL     1     126.001 135.180 122.517  1.00  0.00     0.091 C 
ATOM      4  C   UNL     1     125.132 134.001 122.015  1.00  0.00    -0.026 C 
ATOM      5  C   UNL     1     126.155 135.161 124.080  1.00  0.00     0.061 C 
ATOM      6  C   UNL     1     126.998 133.088 120.639  1.00  0.00     0.116 C 
ATOM      7  C   UNL     1     127.904 134.013 121.489  1.00  0.00     0.102 C 
ATOM      8  C   UNL     1     124.808 134.977 124.706  1.00  0.00    -0.019 A 
ATOM      9  C   UNL     1     123.802 133.880 122.654  1.00  0.00    -0.011 A 
ATOM     10  C   UNL     1     123.765 134.376 123.972  1.00  0.00     0.011 A 
ATOM     11  C   UNL     1     125.583 133.077 121.148  1.00  0.00    -0.007 C 
ATOM     12  C   UNL     1     122.613 134.331 124.759  1.00  0.00     0.056 A 
ATOM     13  C   UNL     1     124.296 135.290 125.935  1.00  0.00     0.099 A 
ATOM     14  C   UNL     1     127.287 136.237 120.737  1.00  0.00     0.106 C 
ATOM     15  C   UNL     1     122.642 133.327 122.118  1.00  0.00     0.009 A 
ATOM     16  C   UNL     1     121.443 133.772 124.206  1.00  0.00     0.027 A 
ATOM     17  C   UNL     1     121.480 133.280 122.888  1.00  0.00     0.003 A 
ENDROOT
BRANCH   6  18
ATOM     18  C   UNL     1     127.248 133.270 119.119  1.00  0.00     0.230 C 
ATOM     19  O   UNL     1     127.770 134.301 118.685  1.00  0.00    -0.274 OA
ATOM     20  N   UNL     1     127.071 132.148 118.292  1.00  0.00    -0.343 N 
BRANCH  20  21
ATOM     21  C   UNL     1     125.691 131.728 118.014  1.00  0.00     0.116 C 
ATOM     22  C   UNL     1     125.521 131.005 116.682  1.00  0.00     0.027 C 
ENDBRANCH  20  21
BRANCH  20  23
ATOM     23  C   UNL     1     128.023 132.055 117.180  1.00  0.00     0.116 C 
ATOM     24  C   UNL     1     129.352 131.419 117.559  1.00  0.00     0.027 C 
ENDBRANCH  20  23
ENDBRANCH   6  18
BRANCH   2  25
ATOM     25  C   UNL     1     122.177 135.107 127.170  1.00  0.00     0.230 C 
ATOM     26  O   UNL     1     122.324 136.152 127.797  1.00  0.00    -0.274 OA
BRANCH  25  27
ATOM     27  C   UNL     1     121.222 134.014 127.563  1.00  0.00     0.097 C 
ATOM     28  C   UNL     1     120.632 134.252 128.946  1.00  0.00     0.014 C 
ENDBRANCH  25  27
ENDBRANCH   2  25
TORSDOF 5
ENDMDL
MODEL 14
REMARK VINA RESULT:    -7.420      2.495      2.947
REMARK INTER + INTRA:         -10.202
REMARK INTER:                  -9.877
REMARK INTRA:                  -0.325
REMARK UNBOUND:                -0.614
REMARK SMILES CCC(=O)n1cc2c3c(cccc31)C1=C[C@@H](C(=O)N(CC)CC)CN(C)[C@@H]1C2
REMARK SMILES IDX 25 1 5 2 27 3 14 4 28 5 16 6 24 7 7 8 9 9 8 10 15 11 13 12
REMARK SMILES IDX 6 13 26 14 10 15 12 16 11 17 17 18 18 19 19 20 20 21 21 22
REMARK SMILES IDX 22 23 23 24 3 25 4 26 2 27 1 28
REMARK H PARENT
ROOT
ATOM      1  N   UNL     1     127.059 133.475 122.225  1.00  0.00    -0.298 NA
ATOM      2  N   UNL     1     122.793 136.054 125.619  1.00  0.00    -0.287 N 
ATOM      3  C   UNL     1     126.370 134.303 123.241  1.00  0.00     0.091 C 
ATOM      4  C   UNL     1     126.780 135.795 123.277  1.00  0.00    -0.026 C 
ATOM      5  C   UNL     1     124.814 134.133 123.119  1.00  0.00     0.061 C 
ATOM      6  C   UNL     1     128.154 135.565 121.211  1.00  0.00     0.116 C 
ATOM      7  C   UNL     1     127.383 134.237 121.003  1.00  0.00     0.102 C 
ATOM      8  C   UNL     1     124.141 135.013 124.126  1.00  0.00    -0.019 A 
ATOM      9  C   UNL     1     126.099 136.613 124.306  1.00  0.00    -0.011 A 
ATOM     10  C   UNL     1     124.810 136.146 124.632  1.00  0.00     0.011 A 
ATOM     11  C   UNL     1     127.607 136.349 122.371  1.00  0.00    -0.007 C 
ATOM     12  C   UNL     1     123.990 136.791 125.560  1.00  0.00     0.056 A 
ATOM     13  C   UNL     1     122.917 134.973 124.736  1.00  0.00     0.099 A 
ATOM     14  C   UNL     1     128.242 132.815 122.773  1.00  0.00     0.106 C 
ATOM     15  C   UNL     1     126.570 137.761 124.937  1.00  0.00     0.009 A 
ATOM     16  C   UNL     1     124.478 137.951 126.196  1.00  0.00     0.027 A 
ATOM     17  C   UNL     1     125.766 138.415 125.872  1.00  0.00     0.003 A 
ENDROOT
BRANCH   6  18
ATOM     18  C   UNL     1     129.689 135.368 121.096  1.00  0.00     0.230 C 
ATOM     19  O   UNL     1     130.194 134.252 121.250  1.00  0.00    -0.274 OA
ATOM     20  N   UNL     1     130.446 136.440 120.596  1.00  0.00    -0.343 N 
BRANCH  20  21
ATOM     21  C   UNL     1     130.661 137.586 121.490  1.00  0.00     0.116 C 
ATOM     22  C   UNL     1     129.976 138.868 121.028  1.00  0.00     0.027 C 
ENDBRANCH  20  21
BRANCH  20  23
ATOM     23  C   UNL     1     131.577 136.044 119.750  1.00  0.00     0.116 C 
ATOM     24  C   UNL     1     132.937 136.285 120.388  1.00  0.00     0.027 C 
ENDBRANCH  20  23
ENDBRANCH   6  18
BRANCH   2  25
ATOM     25  C   UNL     1     121.616 136.255 126.382  1.00  0.00     0.230 C 
ATOM     26  O   UNL     1     121.048 137.342 126.313  1.00  0.00    -0.274 OA
BRANCH  25  27
ATOM     27  C   UNL     1     121.143 135.109 127.233  1.00  0.00     0.097 C 
ATOM     28  C   UNL     1     121.819 135.102 128.597  1.00  0.00     0.014 C 
ENDBRANCH  25  27
ENDBRANCH   2  25
TORSDOF 5
ENDMDL
MODEL 15
REMARK VINA RESULT:    -7.319      2.065      8.118
REMARK INTER + INTRA:         -10.072
REMARK INTER:                  -9.866
REMARK INTRA:                  -0.207
REMARK UNBOUND:                -0.614
REMARK SMILES CCC(=O)n1cc2c3c(cccc31)C1=C[C@@H](C(=O)N(CC)CC)CN(C)[C@@H]1C2
REMARK SMILES IDX 25 1 5 2 27 3 14 4 28 5 16 6 24 7 7 8 9 9 8 10 15 11 13 12
REMARK SMILES IDX 6 13 26 14 10 15 12 16 11 17 17 18 18 19 19 20 20 21 21 22
REMARK SMILES IDX 22 23 23 24 3 25 4 26 2 27 1 28
REMARK H PARENT
ROOT
ATOM      1  N   UNL     1     126.723 135.800 124.859  1.00  0.00    -0.298 NA
ATOM      2  N   UNL     1     126.955 132.931 119.560  1.00  0.00    -0.287 N 
ATOM      3  C   UNL     1     126.424 134.887 123.732  1.00  0.00     0.091 C 
ATOM      4  C   UNL     1     124.951 134.874 123.256  1.00  0.00    -0.026 C 
ATOM      5  C   UNL     1     127.415 135.149 122.542  1.00  0.00     0.061 C 
ATOM      6  C   UNL     1     124.357 136.790 124.734  1.00  0.00     0.116 C 
ATOM      7  C   UNL     1     125.886 137.015 124.837  1.00  0.00     0.102 C 
ATOM      8  C   UNL     1     127.063 134.247 121.400  1.00  0.00    -0.019 A 
ATOM      9  C   UNL     1     124.656 133.949 122.138  1.00  0.00    -0.011 A 
ATOM     10  C   UNL     1     125.758 133.726 121.288  1.00  0.00     0.011 A 
ATOM     11  C   UNL     1     124.020 135.720 123.733  1.00  0.00    -0.007 C 
ATOM     12  C   UNL     1     125.682 132.907 120.160  1.00  0.00     0.056 A 
ATOM     13  C   UNL     1     127.776 133.753 120.342  1.00  0.00     0.099 A 
ATOM     14  C   UNL     1     126.639 135.116 126.148  1.00  0.00     0.106 C 
ATOM     15  C   UNL     1     123.448 133.323 121.841  1.00  0.00     0.009 A 
ATOM     16  C   UNL     1     124.455 132.276 119.869  1.00  0.00     0.027 A 
ATOM     17  C   UNL     1     123.357 132.496 120.721  1.00  0.00     0.003 A 
ENDROOT
BRANCH   6  18
ATOM     18  C   UNL     1     123.681 136.752 126.130  1.00  0.00     0.230 C 
ATOM     19  O   UNL     1     123.655 137.759 126.844  1.00  0.00    -0.274 OA
ATOM     20  N   UNL     1     122.915 135.619 126.451  1.00  0.00    -0.343 N 
BRANCH  20  21
ATOM     21  C   UNL     1     123.644 134.384 126.772  1.00  0.00     0.116 C 
ATOM     22  C   UNL     1     123.205 133.177 125.949  1.00  0.00     0.027 C 
ENDBRANCH  20  21
BRANCH  20  23
ATOM     23  C   UNL     1     121.716 135.901 127.246  1.00  0.00     0.116 C 
ATOM     24  C   UNL     1     121.665 135.154 128.570  1.00  0.00     0.027 C 
ENDBRANCH  20  23
ENDBRANCH   6  18
BRANCH   2  25
ATOM     25  C   UNL     1     127.443 132.291 118.393  1.00  0.00     0.230 C 
ATOM     26  O   UNL     1     126.921 131.237 118.037  1.00  0.00    -0.274 OA
BRANCH  25  27
ATOM     27  C   UNL     1     128.580 132.955 117.669  1.00  0.00     0.097 C 
ATOM     28  C   UNL     1     128.231 134.377 117.253  1.00  0.00     0.014 C 
ENDBRANCH  25  27
ENDBRANCH   2  25
TORSDOF 5
ENDMDL
MODEL 16
REMARK VINA RESULT:    -6.869      2.259      8.108
REMARK INTER + INTRA:          -9.490
REMARK INTER:                 -10.000
REMARK INTRA:                   0.510
REMARK UNBOUND:                -0.614
REMARK SMILES CCC(=O)n1cc2c3c(cccc31)C1=C[C@@H](C(=O)N(CC)CC)CN(C)[C@@H]1C2
REMARK SMILES IDX 25 1 5 2 27 3 14 4 28 5 16 6 24 7 7 8 9 9 8 10 15 11 13 12
REMARK SMILES IDX 6 13 26 14 10 15 12 16 11 17 17 18 18 19 19 20 20 21 21 22
REMARK SMILES IDX 22 23 23 24 3 25 4 26 2 27 1 28
REMARK H PARENT
ROOT
ATOM      1  N   UNL     1     123.439 133.543 123.636  1.00  0.00    -0.298 NA
ATOM      2  N   UNL     1     126.183 132.200 118.436  1.00  0.00    -0.287 N 
ATOM      3  C   UNL     1     124.081 133.657 122.306  1.00  0.00     0.091 C 
ATOM      4  C   UNL     1     125.196 134.725 122.191  1.00  0.00    -0.026 C 
ATOM      5  C   UNL     1     124.577 132.248 121.819  1.00  0.00     0.061 C 
ATOM      6  C   UNL     1     125.150 135.172 124.642  1.00  0.00     0.116 C 
ATOM      7  C   UNL     1     124.374 133.835 124.740  1.00  0.00     0.102 C 
ATOM      8  C   UNL     1     125.262 132.397 120.496  1.00  0.00    -0.019 A 
ATOM      9  C   UNL     1     125.822 134.843 120.856  1.00  0.00    -0.011 A 
ATOM     10  C   UNL     1     125.810 133.641 120.121  1.00  0.00     0.011 A 
ATOM     11  C   UNL     1     125.653 135.422 123.248  1.00  0.00    -0.007 C 
ATOM     12  C   UNL     1     126.375 133.533 118.849  1.00  0.00     0.056 A 
ATOM     13  C   UNL     1     125.498 131.535 119.461  1.00  0.00     0.099 A 
ATOM     14  C   UNL     1     122.232 134.362 123.728  1.00  0.00     0.106 C 
ATOM     15  C   UNL     1     126.419 135.965 120.286  1.00  0.00     0.009 A 
ATOM     16  C   UNL     1     126.974 134.675 118.280  1.00  0.00     0.027 A 
ATOM     17  C   UNL     1     126.983 135.876 119.013  1.00  0.00     0.003 A 
ENDROOT
BRANCH   6  18
ATOM     18  C   UNL     1     124.426 136.319 125.396  1.00  0.00     0.230 C 
ATOM     19  O   UNL     1     124.835 137.481 125.317  1.00  0.00    -0.274 OA
ATOM     20  N   UNL     1     123.179 136.030 125.976  1.00  0.00    -0.343 N 
BRANCH  20  21
ATOM     21  C   UNL     1     123.180 135.225 127.205  1.00  0.00     0.116 C 
ATOM     22  C   UNL     1     121.836 134.576 127.518  1.00  0.00     0.027 C 
ENDBRANCH  20  21
BRANCH  20  23
ATOM     23  C   UNL     1     122.208 137.128 125.909  1.00  0.00     0.116 C 
ATOM     24  C   UNL     1     122.412 138.195 126.973  1.00  0.00     0.027 C 
ENDBRANCH  20  23
ENDBRANCH   6  18
BRANCH   2  25
ATOM     25  C   UNL     1     126.559 131.535 117.243  1.00  0.00     0.230 C 
ATOM     26  O   UNL     1     125.798 130.693 116.774  1.00  0.00    -0.274 OA
BRANCH  25  27
ATOM     27  C   UNL     1     127.879 131.912 116.630  1.00  0.00     0.097 C 
ATOM     28  C   UNL     1     129.043 131.600 117.561  1.00  0.00     0.014 C 
ENDBRANCH  25  27
ENDBRANCH   2  25
TORSDOF 5
ENDMDL
MODEL 17
REMARK VINA RESULT:    -6.604      2.946      5.048
REMARK INTER + INTRA:          -9.148
REMARK INTER:                  -9.527
REMARK INTRA:                   0.378
REMARK UNBOUND:                -0.614
REMARK SMILES CCC(=O)n1cc2c3c(cccc31)C1=C[C@@H](C(=O)N(CC)CC)CN(C)[C@@H]1C2
REMARK SMILES IDX 25 1 5 2 27 3 14 4 28 5 16 6 24 7 7 8 9 9 8 10 15 11 13 12
REMARK SMILES IDX 6 13 26 14 10 15 12 16 11 17 17 18 18 19 19 20 20 21 21 22
REMARK SMILES IDX 22 23 23 24 3 25 4 26 2 27 1 28
REMARK H PARENT
ROOT
ATOM      1  N   UNL     1     128.867 137.496 122.166  1.00  0.00    -0.298 NA
ATOM      2  N   UNL     1     124.095 133.842 122.673  1.00  0.00    -0.287 N 
ATOM      3  C   UNL     1     127.793 136.523 121.860  1.00  0.00     0.091 C 
ATOM      4  C   UNL     1     128.251 135.221 121.160  1.00  0.00    -0.026 C 
ATOM      5  C   UNL     1     126.948 136.222 123.149  1.00  0.00     0.061 C 
ATOM      6  C   UNL     1     130.657 135.804 121.442  1.00  0.00     0.116 C 
ATOM      7  C   UNL     1     130.151 136.839 122.477  1.00  0.00     0.102 C 
ATOM      8  C   UNL     1     125.900 135.203 122.825  1.00  0.00    -0.019 A 
ATOM      9  C   UNL     1     127.170 134.260 120.844  1.00  0.00    -0.011 A 
ATOM     10  C   UNL     1     126.077 134.331 121.732  1.00  0.00     0.011 A 
ATOM     11  C   UNL     1     129.545 134.917 120.953  1.00  0.00    -0.007 C 
ATOM     12  C   UNL     1     124.967 133.492 121.625  1.00  0.00     0.056 A 
ATOM     13  C   UNL     1     124.691 134.892 123.385  1.00  0.00     0.099 A 
ATOM     14  C   UNL     1     129.018 138.489 121.104  1.00  0.00     0.106 C 
ATOM     15  C   UNL     1     127.135 133.316 119.821  1.00  0.00     0.009 A 
ATOM     16  C   UNL     1     124.940 132.543 120.582  1.00  0.00     0.027 A 
ATOM     17  C   UNL     1     126.030 132.474 119.695  1.00  0.00     0.003 A 
ENDROOT
BRANCH   6  18
ATOM     18  C   UNL     1     131.617 136.444 120.405  1.00  0.00     0.230 C 
ATOM     19  O   UNL     1     132.220 137.489 120.667  1.00  0.00    -0.274 OA
ATOM     20  N   UNL     1     131.944 135.687 119.267  1.00  0.00    -0.343 N 
BRANCH  20  21
ATOM     21  C   UNL     1     130.913 135.554 118.229  1.00  0.00     0.116 C 
ATOM     22  C   UNL     1     129.986 136.761 118.121  1.00  0.00     0.027 C 
ENDBRANCH  20  21
BRANCH  20  23
ATOM     23  C   UNL     1     133.326 135.850 118.805  1.00  0.00     0.116 C 
ATOM     24  C   UNL     1     134.355 135.848 119.925  1.00  0.00     0.027 C 
ENDBRANCH  20  23
ENDBRANCH   6  18
BRANCH   2  25
ATOM     25  C   UNL     1     122.833 133.318 123.045  1.00  0.00     0.230 C 
ATOM     26  O   UNL     1     122.518 133.327 124.232  1.00  0.00    -0.274 OA
BRANCH  25  27
ATOM     27  C   UNL     1     121.961 132.779 121.946  1.00  0.00     0.097 C 
ATOM     28  C   UNL     1     120.543 133.326 122.030  1.00  0.00     0.014 C 
ENDBRANCH  25  27
ENDBRANCH   2  25
TORSDOF 5
ENDMDL
MODEL 18
REMARK VINA RESULT:    -6.532      2.432      3.885
REMARK INTER + INTRA:          -9.056
REMARK INTER:                  -9.200
REMARK INTRA:                   0.144
REMARK UNBOUND:                -0.614
REMARK SMILES CCC(=O)n1cc2c3c(cccc31)C1=C[C@@H](C(=O)N(CC)CC)CN(C)[C@@H]1C2
REMARK SMILES IDX 25 1 5 2 27 3 14 4 28 5 16 6 24 7 7 8 9 9 8 10 15 11 13 12
REMARK SMILES IDX 6 13 26 14 10 15 12 16 11 17 17 18 18 19 19 20 20 21 21 22
REMARK SMILES IDX 22 23 23 24 3 25 4 26 2 27 1 28
REMARK H PARENT
ROOT
ATOM      1  N   UNL     1     127.430 133.676 118.246  1.00  0.00    -0.298 NA
ATOM      2  N   UNL     1     123.308 133.779 122.647  1.00  0.00    -0.287 N 
ATOM      3  C   UNL     1     126.782 133.783 119.573  1.00  0.00     0.091 C 
ATOM      4  C   UNL     1     127.158 135.037 120.401  1.00  0.00    -0.026 C 
ATOM      5  C   UNL     1     125.226 133.627 119.434  1.00  0.00     0.061 C 
ATOM      6  C   UNL     1     128.415 136.034 118.494  1.00  0.00     0.116 C 
ATOM      7  C   UNL     1     127.665 134.993 117.625  1.00  0.00     0.102 C 
ATOM      8  C   UNL     1     124.592 133.785 120.781  1.00  0.00    -0.019 A 
ATOM      9  C   UNL     1     126.519 135.130 121.732  1.00  0.00    -0.011 A 
ATOM     10  C   UNL     1     125.262 134.495 121.798  1.00  0.00     0.011 A 
ATOM     11  C   UNL     1     127.917 136.035 119.913  1.00  0.00    -0.007 C 
ATOM     12  C   UNL     1     124.483 134.491 122.956  1.00  0.00     0.056 A 
ATOM     13  C   UNL     1     123.407 133.358 121.315  1.00  0.00     0.099 A 
ATOM     14  C   UNL     1     128.658 132.885 118.304  1.00  0.00     0.106 C 
ATOM     15  C   UNL     1     126.998 135.775 122.869  1.00  0.00     0.009 A 
ATOM     16  C   UNL     1     124.979 135.144 124.102  1.00  0.00     0.027 A 
ATOM     17  C   UNL     1     126.235 135.775 124.037  1.00  0.00     0.003 A 
ENDROOT
BRANCH   6  18
ATOM     18  C   UNL     1     129.945 136.010 118.235  1.00  0.00     0.230 C 
ATOM     19  O   UNL     1     130.398 136.262 117.115  1.00  0.00    -0.274 OA
ATOM     20  N   UNL     1     130.792 135.917 119.352  1.00  0.00    -0.343 N 
BRANCH  20  21
ATOM     21  C   UNL     1     130.886 134.611 120.018  1.00  0.00     0.116 C 
ATOM     22  C   UNL     1     130.306 134.594 121.429  1.00  0.00     0.027 C 
ENDBRANCH  20  21
BRANCH  20  23
ATOM     23  C   UNL     1     132.034 136.689 119.239  1.00  0.00     0.116 C 
ATOM     24  C   UNL     1     133.284 135.899 119.595  1.00  0.00     0.027 C 
ENDBRANCH  20  23
ENDBRANCH   6  18
BRANCH   2  25
ATOM     25  C   UNL     1     122.173 133.473 123.439  1.00  0.00     0.230 C 
ATOM     26  O   UNL     1     122.346 133.011 124.563  1.00  0.00    -0.274 OA
BRANCH  25  27
ATOM     27  C   UNL     1     120.822 133.739 122.836  1.00  0.00     0.097 C 
ATOM     28  C   UNL     1     120.463 132.706 121.777  1.00  0.00     0.014 C 
ENDBRANCH  25  27
ENDBRANCH   2  25
TORSDOF 5
ENDMDL
