MODEL 1
REMARK VINA RESULT:    -9.486      0.000      0.000
REMARK INTER + INTRA:         -12.965
REMARK INTER:                 -12.259
REMARK INTRA:                  -0.706
REMARK UNBOUND:                -0.706
REMARK SMILES C=CCN1C[C@H](C(=O)N(CC)CC)C=C2c3cccc4[nH]cc(c34)C[C@H]21
REMARK SMILES IDX 4 1 21 2 26 3 15 4 25 5 6 6 5 7 23 8 16 9 14 10 24 11 20 12
REMARK SMILES IDX 22 13 17 14 19 15 18 16 7 18 8 19 9 20 10 21 11 22 12 23
REMARK SMILES IDX 13 24 3 25 2 26 1 27
REMARK H PARENT 21 17
ROOT
ATOM      1  N   UNL     1      20.393  17.977  11.806  1.00  0.00    -0.291 NA
ATOM      2  N   UNL     1      23.426  14.503   7.909  1.00  0.00    -0.361 N 
ATOM      3  C   UNL     1      20.852  17.294  10.568  1.00  0.00     0.092 C 
ATOM      4  C   UNL     1      21.197  18.268   9.399  1.00  0.00    -0.026 C 
ATOM      5  C   UNL     1      21.875  16.128  10.837  1.00  0.00     0.061 C 
ATOM      6  C   UNL     1      19.991  20.149  10.550  1.00  0.00     0.116 C 
ATOM      7  C   UNL     1      19.451  19.062  11.498  1.00  0.00     0.103 C 
ATOM      8  C   UNL     1      22.438  15.603   9.564  1.00  0.00    -0.020 A 
ATOM      9  C   UNL     1      21.887  17.695   8.215  1.00  0.00    -0.011 A 
ATOM     10  C   UNL     1      20.818  19.563   9.427  1.00  0.00    -0.007 C 
ATOM     11  C   UNL     1      22.418  16.410   8.405  1.00  0.00     0.010 A 
ATOM     12  C   UNL     1      23.046  15.718   7.382  1.00  0.00     0.046 A 
ATOM     13  C   UNL     1      23.065  14.423   9.237  1.00  0.00     0.087 A 
ATOM     14  C   UNL     1      22.024  18.253   6.936  1.00  0.00     0.009 A 
ATOM     15  C   UNL     1      23.194  16.268   6.107  1.00  0.00     0.027 A 
ATOM     16  C   UNL     1      22.669  17.551   5.907  1.00  0.00     0.003 A 
ATOM     17  H   UNL     1      23.908  13.780   7.394  1.00  0.00     0.166 HD
ENDROOT
BRANCH   6  18
ATOM     18  C   UNL     1      18.794  20.945   9.992  1.00  0.00     0.230 C 
ATOM     19  O   UNL     1      18.264  20.623   8.924  1.00  0.00    -0.274 OA
ATOM     20  N   UNL     1      18.298  22.014  10.746  1.00  0.00    -0.343 N 
BRANCH  20  21
ATOM     21  C   UNL     1      17.146  22.741  10.202  1.00  0.00     0.116 C 
ATOM     22  C   UNL     1      16.246  23.341  11.272  1.00  0.00     0.027 C 
ENDBRANCH  20  21
BRANCH  20  23
ATOM     23  C   UNL     1      18.938  22.566  11.944  1.00  0.00     0.116 C 
ATOM     24  C   UNL     1      19.886  23.717  11.640  1.00  0.00     0.027 C 
ENDBRANCH  20  23
ENDBRANCH   6  18
BRANCH   1  25
ATOM     25  C   UNL     1      21.382  18.284  12.837  1.00  0.00     0.112 C 
BRANCH  25  26
ATOM     26  C   UNL     1      22.657  18.962  12.424  1.00  0.00    -0.019 C 
ATOM     27  C   UNL     1      22.954  20.245  12.680  1.00  0.00     0.005 C 
ENDBRANCH  25  26
ENDBRANCH   1  25
TORSDOF 5
ENDMDL
MODEL 2
REMARK VINA RESULT:    -8.637      1.425      1.645
REMARK INTER + INTRA:         -11.867
REMARK INTER:                 -10.992
REMARK INTRA:                  -0.876
REMARK UNBOUND:                -0.706
REMARK SMILES C=CCN1C[C@H](C(=O)N(CC)CC)C=C2c3cccc4[nH]cc(c34)C[C@H]21
REMARK SMILES IDX 4 1 21 2 26 3 15 4 25 5 6 6 5 7 23 8 16 9 14 10 24 11 20 12
REMARK SMILES IDX 22 13 17 14 19 15 18 16 7 18 8 19 9 20 10 21 11 22 12 23
REMARK SMILES IDX 13 24 3 25 2 26 1 27
REMARK H PARENT 21 17
ROOT
ATOM      1  N   UNL     1      20.532  17.630  12.265  1.00  0.00    -0.291 NA
ATOM      2  N   UNL     1      22.814  15.737   7.006  1.00  0.00    -0.361 N 
ATOM      3  C   UNL     1      20.773  17.416  10.813  1.00  0.00     0.092 C 
ATOM      4  C   UNL     1      20.975  18.735  10.005  1.00  0.00    -0.026 C 
ATOM      5  C   UNL     1      21.782  16.245  10.512  1.00  0.00     0.061 C 
ATOM      6  C   UNL     1      20.026  20.092  11.895  1.00  0.00     0.116 C 
ATOM      7  C   UNL     1      19.595  18.739  12.491  1.00  0.00     0.103 C 
ATOM      8  C   UNL     1      22.127  16.193   9.066  1.00  0.00    -0.020 A 
ATOM      9  C   UNL     1      21.457  18.609   8.605  1.00  0.00    -0.011 A 
ATOM     10  C   UNL     1      20.652  19.937  10.526  1.00  0.00    -0.007 C 
ATOM     11  C   UNL     1      21.963  17.345   8.266  1.00  0.00     0.010 A 
ATOM     12  C   UNL     1      22.404  17.053   6.985  1.00  0.00     0.046 A 
ATOM     13  C   UNL     1      22.654  15.205   8.267  1.00  0.00     0.087 A 
ATOM     14  C   UNL     1      21.420  19.570   7.585  1.00  0.00     0.009 A 
ATOM     15  C   UNL     1      22.379  18.005   5.965  1.00  0.00     0.027 A 
ATOM     16  C   UNL     1      21.877  19.271   6.293  1.00  0.00     0.003 A 
ATOM     17  H   UNL     1      23.186  15.240   6.209  1.00  0.00     0.166 HD
ENDROOT
BRANCH   6  18
ATOM     18  C   UNL     1      18.788  21.010  11.830  1.00  0.00     0.230 C 
ATOM     19  O   UNL     1      17.835  20.736  11.094  1.00  0.00    -0.274 OA
ATOM     20  N   UNL     1      18.755  22.140  12.655  1.00  0.00    -0.343 N 
BRANCH  20  21
ATOM     21  C   UNL     1      17.558  22.984  12.589  1.00  0.00     0.116 C 
ATOM     22  C   UNL     1      16.535  22.674  13.672  1.00  0.00     0.027 C 
ENDBRANCH  20  21
BRANCH  20  23
ATOM     23  C   UNL     1      19.885  22.633  13.450  1.00  0.00     0.116 C 
ATOM     24  C   UNL     1      20.690  23.711  12.741  1.00  0.00     0.027 C 
ENDBRANCH  20  23
ENDBRANCH   6  18
BRANCH   1  25
ATOM     25  C   UNL     1      21.675  17.586  13.174  1.00  0.00     0.112 C 
BRANCH  25  26
ATOM     26  C   UNL     1      21.496  18.107  14.571  1.00  0.00    -0.019 C 
ATOM     27  C   UNL     1      22.352  18.934  15.189  1.00  0.00     0.005 C 
ENDBRANCH  25  26
ENDBRANCH   1  25
TORSDOF 5
ENDMDL
MODEL 3
REMARK VINA RESULT:    -8.405      2.924      4.860
REMARK INTER + INTRA:         -11.568
REMARK INTER:                 -10.750
REMARK INTRA:                  -0.818
REMARK UNBOUND:                -0.706
REMARK SMILES C=CCN1C[C@H](C(=O)N(CC)CC)C=C2c3cccc4[nH]cc(c34)C[C@H]21
REMARK SMILES IDX 4 1 21 2 26 3 15 4 25 5 6 6 5 7 23 8 16 9 14 10 24 11 20 12
REMARK SMILES IDX 22 13 17 14 19 15 18 16 7 18 8 19 9 20 10 21 11 22 12 23
REMARK SMILES IDX 13 24 3 25 2 26 1 27
REMARK H PARENT 21 17
ROOT
ATOM      1  N   UNL     1      20.921  17.692   9.208  1.00  0.00    -0.291 NA
ATOM      2  N   UNL     1      23.862  13.969   5.475  1.00  0.00    -0.361 N 
ATOM      3  C   UNL     1      21.987  16.913   8.524  1.00  0.00     0.092 C 
ATOM      4  C   UNL     1      22.837  16.026   9.485  1.00  0.00    -0.026 C 
ATOM      5  C   UNL     1      21.508  16.239   7.184  1.00  0.00     0.061 C 
ATOM      6  C   UNL     1      21.980  17.288  11.482  1.00  0.00     0.116 C 
ATOM      7  C   UNL     1      21.416  18.289  10.457  1.00  0.00     0.103 C 
ATOM      8  C   UNL     1      22.550  15.328   6.639  1.00  0.00    -0.020 A 
ATOM      9  C   UNL     1      23.758  15.038   8.865  1.00  0.00    -0.011 A 
ATOM     10  C   UNL     1      22.797  16.199  10.823  1.00  0.00    -0.007 C 
ATOM     11  C   UNL     1      23.540  14.804   7.499  1.00  0.00     0.010 A 
ATOM     12  C   UNL     1      24.347  13.950   6.765  1.00  0.00     0.046 A 
ATOM     13  C   UNL     1      22.767  14.801   5.387  1.00  0.00     0.087 A 
ATOM     14  C   UNL     1      24.832  14.362   9.459  1.00  0.00     0.009 A 
ATOM     15  C   UNL     1      25.414  13.265   7.348  1.00  0.00     0.027 A 
ATOM     16  C   UNL     1      25.639  13.491   8.713  1.00  0.00     0.003 A 
ATOM     17  H   UNL     1      24.253  13.440   4.707  1.00  0.00     0.166 HD
ENDROOT
BRANCH   6  18
ATOM     18  C   UNL     1      22.831  18.068  12.505  1.00  0.00     0.230 C 
ATOM     19  O   UNL     1      23.998  18.380  12.249  1.00  0.00    -0.274 OA
ATOM     20  N   UNL     1      22.234  18.449  13.712  1.00  0.00    -0.343 N 
BRANCH  20  21
ATOM     21  C   UNL     1      23.060  19.207  14.658  1.00  0.00     0.116 C 
ATOM     22  C   UNL     1      23.771  18.332  15.679  1.00  0.00     0.027 C 
ENDBRANCH  20  21
BRANCH  20  23
ATOM     23  C   UNL     1      20.914  18.007  14.173  1.00  0.00     0.116 C 
ATOM     24  C   UNL     1      19.801  18.985  13.830  1.00  0.00     0.027 C 
ENDBRANCH  20  23
ENDBRANCH   6  18
BRANCH   1  25
ATOM     25  C   UNL     1      19.579  17.120   9.281  1.00  0.00     0.112 C 
BRANCH  25  26
ATOM     26  C   UNL     1      18.680  17.548  10.405  1.00  0.00    -0.019 C 
ATOM     27  C   UNL     1      17.859  18.607  10.362  1.00  0.00     0.005 C 
ENDBRANCH  25  26
ENDBRANCH   1  25
TORSDOF 5
ENDMDL
MODEL 4
REMARK VINA RESULT:    -8.322      1.707      7.041
REMARK INTER + INTRA:         -11.460
REMARK INTER:                 -10.690
REMARK INTRA:                  -0.770
REMARK UNBOUND:                -0.706
REMARK SMILES C=CCN1C[C@H](C(=O)N(CC)CC)C=C2c3cccc4[nH]cc(c34)C[C@H]21
REMARK SMILES IDX 4 1 21 2 26 3 15 4 25 5 6 6 5 7 23 8 16 9 14 10 24 11 20 12
REMARK SMILES IDX 22 13 17 14 19 15 18 16 7 18 8 19 9 20 10 21 11 22 12 23
REMARK SMILES IDX 13 24 3 25 2 26 1 27
REMARK H PARENT 21 17
ROOT
ATOM      1  N   UNL     1      21.379  19.355  12.228  1.00  0.00    -0.291 NA
ATOM      2  N   UNL     1      17.764  24.058  13.355  1.00  0.00    -0.361 N 
ATOM      3  C   UNL     1      20.580  20.601  12.087  1.00  0.00     0.092 C 
ATOM      4  C   UNL     1      19.554  20.565  10.913  1.00  0.00    -0.026 C 
ATOM      5  C   UNL     1      20.058  21.169  13.460  1.00  0.00     0.061 C 
ATOM      6  C   UNL     1      20.708  18.572   9.906  1.00  0.00     0.116 C 
ATOM      7  C   UNL     1      21.831  18.861  10.919  1.00  0.00     0.103 C 
ATOM      8  C   UNL     1      19.119  22.303  13.250  1.00  0.00    -0.020 A 
ATOM      9  C   UNL     1      18.553  21.661  10.848  1.00  0.00    -0.011 A 
ATOM     10  C   UNL     1      19.618  19.621   9.950  1.00  0.00    -0.007 C 
ATOM     11  C   UNL     1      18.451  22.438  12.012  1.00  0.00     0.010 A 
ATOM     12  C   UNL     1      17.601  23.529  12.092  1.00  0.00     0.046 A 
ATOM     13  C   UNL     1      18.682  23.318  14.069  1.00  0.00     0.087 A 
ATOM     14  C   UNL     1      17.750  22.040   9.763  1.00  0.00     0.009 A 
ATOM     15  C   UNL     1      16.792  23.909  11.021  1.00  0.00     0.027 A 
ATOM     16  C   UNL     1      16.885  23.140   9.853  1.00  0.00     0.003 A 
ATOM     17  H   UNL     1      17.273  24.868  13.705  1.00  0.00     0.166 HD
ENDROOT
BRANCH   6  18
ATOM     18  C   UNL     1      21.334  18.493   8.498  1.00  0.00     0.230 C 
ATOM     19  O   UNL     1      21.442  19.504   7.797  1.00  0.00    -0.274 OA
ATOM     20  N   UNL     1      21.812  17.256   8.052  1.00  0.00    -0.343 N 
BRANCH  20  21
ATOM     21  C   UNL     1      22.420  17.213   6.719  1.00  0.00     0.116 C 
ATOM     22  C   UNL     1      22.159  15.912   5.974  1.00  0.00     0.027 C 
ENDBRANCH  20  21
BRANCH  20  23
ATOM     23  C   UNL     1      21.601  15.977   8.739  1.00  0.00     0.116 C 
ATOM     24  C   UNL     1      22.808  15.526   9.549  1.00  0.00     0.027 C 
ENDBRANCH  20  23
ENDBRANCH   6  18
BRANCH   1  25
ATOM     25  C   UNL     1      20.907  18.327  13.152  1.00  0.00     0.112 C 
BRANCH  25  26
ATOM     26  C   UNL     1      21.915  17.388  13.751  1.00  0.00    -0.019 C 
ATOM     27  C   UNL     1      22.713  17.688  14.785  1.00  0.00     0.005 C 
ENDBRANCH  25  26
ENDBRANCH   1  25
TORSDOF 5
ENDMDL
MODEL 5
REMARK VINA RESULT:    -8.064      1.948      4.502
REMARK INTER + INTRA:         -11.127
REMARK INTER:                 -11.063
REMARK INTRA:                  -0.064
REMARK UNBOUND:                -0.706
REMARK SMILES C=CCN1C[C@H](C(=O)N(CC)CC)C=C2c3cccc4[nH]cc(c34)C[C@H]21
REMARK SMILES IDX 4 1 21 2 26 3 15 4 25 5 6 6 5 7 23 8 16 9 14 10 24 11 20 12
REMARK SMILES IDX 22 13 17 14 19 15 18 16 7 18 8 19 9 20 10 21 11 22 12 23
REMARK SMILES IDX 13 24 3 25 2 26 1 27
REMARK H PARENT 21 17
ROOT
ATOM      1  N   UNL     1      20.228  20.137  10.172  1.00  0.00    -0.291 NA
ATOM      2  N   UNL     1      23.086  16.740   6.080  1.00  0.00    -0.361 N 
ATOM      3  C   UNL     1      21.161  19.182   9.517  1.00  0.00     0.092 C 
ATOM      4  C   UNL     1      21.160  17.759  10.156  1.00  0.00    -0.026 C 
ATOM      5  C   UNL     1      21.121  19.246   7.944  1.00  0.00     0.061 C 
ATOM      6  C   UNL     1      19.990  18.630  12.203  1.00  0.00     0.116 C 
ATOM      7  C   UNL     1      20.296  20.028  11.636  1.00  0.00     0.103 C 
ATOM      8  C   UNL     1      21.930  18.153   7.341  1.00  0.00    -0.020 A 
ATOM      9  C   UNL     1      21.874  16.682   9.423  1.00  0.00    -0.011 A 
ATOM     10  C   UNL     1      20.601  17.529  11.363  1.00  0.00    -0.007 C 
ATOM     11  C   UNL     1      22.211  16.993   8.097  1.00  0.00     0.010 A 
ATOM     12  C   UNL     1      22.923  16.114   7.297  1.00  0.00     0.046 A 
ATOM     13  C   UNL     1      22.483  17.979   6.094  1.00  0.00     0.087 A 
ATOM     14  C   UNL     1      22.291  15.433   9.905  1.00  0.00     0.009 A 
ATOM     15  C   UNL     1      23.336  14.865   7.764  1.00  0.00     0.027 A 
ATOM     16  C   UNL     1      23.003  14.544   9.087  1.00  0.00     0.003 A 
ATOM     17  H   UNL     1      23.572  16.340   5.290  1.00  0.00     0.166 HD
ENDROOT
BRANCH   6  18
ATOM     18  C   UNL     1      20.514  18.567  13.652  1.00  0.00     0.230 C 
ATOM     19  O   UNL     1      19.812  18.110  14.559  1.00  0.00    -0.274 OA
ATOM     20  N   UNL     1      21.820  19.004  13.905  1.00  0.00    -0.343 N 
BRANCH  20  21
ATOM     21  C   UNL     1      22.300  18.914  15.287  1.00  0.00     0.116 C 
ATOM     22  C   UNL     1      22.661  20.263  15.892  1.00  0.00     0.027 C 
ENDBRANCH  20  21
BRANCH  20  23
ATOM     23  C   UNL     1      22.677  19.694  12.936  1.00  0.00     0.116 C 
ATOM     24  C   UNL     1      23.977  18.956  12.654  1.00  0.00     0.027 C 
ENDBRANCH  20  23
ENDBRANCH   6  18
BRANCH   1  25
ATOM     25  C   UNL     1      18.884  20.286   9.620  1.00  0.00     0.112 C 
BRANCH  25  26
ATOM     26  C   UNL     1      17.945  21.256  10.278  1.00  0.00    -0.019 C 
ATOM     27  C   UNL     1      17.375  22.301   9.661  1.00  0.00     0.005 C 
ENDBRANCH  25  26
ENDBRANCH   1  25
TORSDOF 5
ENDMDL
MODEL 6
REMARK VINA RESULT:    -8.051      3.752      7.490
REMARK INTER + INTRA:         -11.110
REMARK INTER:                 -10.663
REMARK INTRA:                  -0.447
REMARK UNBOUND:                -0.706
REMARK SMILES C=CCN1C[C@H](C(=O)N(CC)CC)C=C2c3cccc4[nH]cc(c34)C[C@H]21
REMARK SMILES IDX 4 1 21 2 26 3 15 4 25 5 6 6 5 7 23 8 16 9 14 10 24 11 20 12
REMARK SMILES IDX 22 13 17 14 19 15 18 16 7 18 8 19 9 20 10 21 11 22 12 23
REMARK SMILES IDX 13 24 3 25 2 26 1 27
REMARK H PARENT 21 17
ROOT
ATOM      1  N   UNL     1      21.335  21.043  13.594  1.00  0.00    -0.291 NA
ATOM      2  N   UNL     1      23.928  20.114  18.967  1.00  0.00    -0.361 N 
ATOM      3  C   UNL     1      21.891  20.398  14.813  1.00  0.00     0.092 C 
ATOM      4  C   UNL     1      22.972  19.313  14.516  1.00  0.00    -0.026 C 
ATOM      5  C   UNL     1      22.217  21.417  15.968  1.00  0.00     0.061 C 
ATOM      6  C   UNL     1      22.274  19.212  12.104  1.00  0.00     0.116 C 
ATOM      7  C   UNL     1      21.060  20.051  12.545  1.00  0.00     0.103 C 
ATOM      8  C   UNL     1      22.936  20.750  17.086  1.00  0.00    -0.020 A 
ATOM      9  C   UNL     1      23.750  18.792  15.669  1.00  0.00    -0.011 A 
ATOM     10  C   UNL     1      23.143  18.810  13.275  1.00  0.00    -0.007 C 
ATOM     11  C   UNL     1      23.637  19.547  16.847  1.00  0.00     0.010 A 
ATOM     12  C   UNL     1      24.260  19.165  18.024  1.00  0.00     0.046 A 
ATOM     13  C   UNL     1      23.126  21.084  18.406  1.00  0.00     0.087 A 
ATOM     14  C   UNL     1      24.529  17.628  15.736  1.00  0.00     0.009 A 
ATOM     15  C   UNL     1      25.044  18.012  18.099  1.00  0.00     0.027 A 
ATOM     16  C   UNL     1      25.165  17.252  16.928  1.00  0.00     0.003 A 
ATOM     17  H   UNL     1      24.237  20.100  19.928  1.00  0.00     0.166 HD
ENDROOT
BRANCH   6  18
ATOM     18  C   UNL     1      21.757  17.968  11.353  1.00  0.00     0.230 C 
ATOM     19  O   UNL     1      21.846  16.844  11.856  1.00  0.00    -0.274 OA
ATOM     20  N   UNL     1      21.147  18.150  10.106  1.00  0.00    -0.343 N 
BRANCH  20  21
ATOM     21  C   UNL     1      20.646  16.953   9.423  1.00  0.00     0.116 C 
ATOM     22  C   UNL     1      19.214  16.599   9.793  1.00  0.00     0.027 C 
ENDBRANCH  20  21
BRANCH  20  23
ATOM     23  C   UNL     1      21.122  19.413   9.360  1.00  0.00     0.116 C 
ATOM     24  C   UNL     1      21.500  19.251   7.896  1.00  0.00     0.027 C 
ENDBRANCH  20  23
ENDBRANCH   6  18
BRANCH   1  25
ATOM     25  C   UNL     1      21.938  22.290  13.130  1.00  0.00     0.112 C 
BRANCH  25  26
ATOM     26  C   UNL     1      21.078  23.520  13.071  1.00  0.00    -0.019 C 
ATOM     27  C   UNL     1      20.116  23.733  12.161  1.00  0.00     0.005 C 
ENDBRANCH  25  26
ENDBRANCH   1  25
TORSDOF 5
ENDMDL
MODEL 7
REMARK VINA RESULT:    -8.003      2.406      7.489
REMARK INTER + INTRA:         -11.048
REMARK INTER:                 -10.357
REMARK INTRA:                  -0.691
REMARK UNBOUND:                -0.706
REMARK SMILES C=CCN1C[C@H](C(=O)N(CC)CC)C=C2c3cccc4[nH]cc(c34)C[C@H]21
REMARK SMILES IDX 4 1 21 2 26 3 15 4 25 5 6 6 5 7 23 8 16 9 14 10 24 11 20 12
REMARK SMILES IDX 22 13 17 14 19 15 18 16 7 18 8 19 9 20 10 21 11 22 12 23
REMARK SMILES IDX 13 24 3 25 2 26 1 27
REMARK H PARENT 21 17
ROOT
ATOM      1  N   UNL     1      20.299  18.579   9.586  1.00  0.00    -0.291 NA
ATOM      2  N   UNL     1      20.665  21.684  14.751  1.00  0.00    -0.361 N 
ATOM      3  C   UNL     1      20.486  18.947  11.014  1.00  0.00     0.092 C 
ATOM      4  C   UNL     1      21.868  18.523  11.600  1.00  0.00    -0.026 C 
ATOM      5  C   UNL     1      19.995  20.404  11.355  1.00  0.00     0.061 C 
ATOM      6  C   UNL     1      22.264  16.970   9.664  1.00  0.00     0.116 C 
ATOM      7  C   UNL     1      20.784  17.217   9.319  1.00  0.00     0.103 C 
ATOM      8  C   UNL     1      20.371  20.786  12.743  1.00  0.00    -0.020 A 
ATOM      9  C   UNL     1      22.236  19.059  12.937  1.00  0.00    -0.011 A 
ATOM     10  C   UNL     1      22.667  17.645  10.957  1.00  0.00    -0.007 C 
ATOM     11  C   UNL     1      21.436  20.120  13.387  1.00  0.00     0.010 A 
ATOM     12  C   UNL     1      21.618  20.695  14.635  1.00  0.00     0.046 A 
ATOM     13  C   UNL     1      19.903  21.751  13.605  1.00  0.00     0.087 A 
ATOM     14  C   UNL     1      23.235  18.604  13.809  1.00  0.00     0.009 A 
ATOM     15  C   UNL     1      22.615  20.256  15.507  1.00  0.00     0.027 A 
ATOM     16  C   UNL     1      23.420  19.197  15.066  1.00  0.00     0.003 A 
ATOM     17  H   UNL     1      20.550  22.278  15.560  1.00  0.00     0.166 HD
ENDROOT
BRANCH   6  18
ATOM     18  C   UNL     1      22.495  15.447   9.746  1.00  0.00     0.230 C 
ATOM     19  O   UNL     1      21.957  14.773  10.630  1.00  0.00    -0.274 OA
ATOM     20  N   UNL     1      23.297  14.844   8.770  1.00  0.00    -0.343 N 
BRANCH  20  21
ATOM     21  C   UNL     1      23.484  13.392   8.860  1.00  0.00     0.116 C 
ATOM     22  C   UNL     1      24.883  12.936   8.473  1.00  0.00     0.027 C 
ENDBRANCH  20  21
BRANCH  20  23
ATOM     23  C   UNL     1      24.094  15.567   7.774  1.00  0.00     0.116 C 
ATOM     24  C   UNL     1      23.390  15.711   6.434  1.00  0.00     0.027 C 
ENDBRANCH  20  23
ENDBRANCH   6  18
BRANCH   1  25
ATOM     25  C   UNL     1      20.629  19.568   8.563  1.00  0.00     0.112 C 
BRANCH  25  26
ATOM     26  C   UNL     1      21.620  19.193   7.499  1.00  0.00    -0.019 C 
ATOM     27  C   UNL     1      22.280  20.071   6.730  1.00  0.00     0.005 C 
ENDBRANCH  25  26
ENDBRANCH   1  25
TORSDOF 5
ENDMDL
MODEL 8
REMARK VINA RESULT:    -7.758      3.994      7.172
REMARK INTER + INTRA:         -10.731
REMARK INTER:                 -10.087
REMARK INTRA:                  -0.644
REMARK UNBOUND:                -0.706
REMARK SMILES C=CCN1C[C@H](C(=O)N(CC)CC)C=C2c3cccc4[nH]cc(c34)C[C@H]21
REMARK SMILES IDX 4 1 21 2 26 3 15 4 25 5 6 6 5 7 23 8 16 9 14 10 24 11 20 12
REMARK SMILES IDX 22 13 17 14 19 15 18 16 7 18 8 19 9 20 10 21 11 22 12 23
REMARK SMILES IDX 13 24 3 25 2 26 1 27
REMARK H PARENT 21 17
ROOT
ATOM      1  N   UNL     1      21.766  21.724  14.285  1.00  0.00    -0.291 NA
ATOM      2  N   UNL     1      18.207  19.976   9.732  1.00  0.00    -0.361 N 
ATOM      3  C   UNL     1      21.205  20.994  13.118  1.00  0.00     0.092 C 
ATOM      4  C   UNL     1      21.032  19.462  13.355  1.00  0.00    -0.026 C 
ATOM      5  C   UNL     1      19.999  21.740  12.434  1.00  0.00     0.061 C 
ATOM      6  C   UNL     1      22.533  19.558  15.368  1.00  0.00     0.116 C 
ATOM      7  C   UNL     1      22.879  20.981  14.893  1.00  0.00     0.103 C 
ATOM      8  C   UNL     1      19.360  20.888  11.395  1.00  0.00    -0.020 A 
ATOM      9  C   UNL     1      20.260  18.698  12.340  1.00  0.00    -0.011 A 
ATOM     10  C   UNL     1      21.624  18.839  14.396  1.00  0.00    -0.007 C 
ATOM     11  C   UNL     1      19.520  19.486  11.445  1.00  0.00     0.010 A 
ATOM     12  C   UNL     1      18.788  18.926  10.410  1.00  0.00     0.046 A 
ATOM     13  C   UNL     1      18.545  21.174  10.324  1.00  0.00     0.087 A 
ATOM     14  C   UNL     1      20.224  17.311  12.141  1.00  0.00     0.009 A 
ATOM     15  C   UNL     1      18.739  17.546  10.208  1.00  0.00     0.027 A 
ATOM     16  C   UNL     1      19.474  16.750  11.097  1.00  0.00     0.003 A 
ATOM     17  H   UNL     1      17.613  19.876   8.922  1.00  0.00     0.166 HD
ENDROOT
BRANCH   6  18
ATOM     18  C   UNL     1      23.849  18.778  15.566  1.00  0.00     0.230 C 
ATOM     19  O   UNL     1      24.403  18.221  14.612  1.00  0.00    -0.274 OA
ATOM     20  N   UNL     1      24.421  18.753  16.842  1.00  0.00    -0.343 N 
BRANCH  20  21
ATOM     21  C   UNL     1      25.683  18.022  16.997  1.00  0.00     0.116 C 
ATOM     22  C   UNL     1      25.495  16.534  17.251  1.00  0.00     0.027 C 
ENDBRANCH  20  21
BRANCH  20  23
ATOM     23  C   UNL     1      23.777  19.253  18.061  1.00  0.00     0.116 C 
ATOM     24  C   UNL     1      24.708  19.277  19.264  1.00  0.00     0.027 C 
ENDBRANCH  20  23
ENDBRANCH   6  18
BRANCH   1  25
ATOM     25  C   UNL     1      20.840  22.342  15.231  1.00  0.00     0.112 C 
BRANCH  25  26
ATOM     26  C   UNL     1      21.398  23.259  16.281  1.00  0.00    -0.019 C 
ATOM     27  C   UNL     1      21.306  23.048  17.602  1.00  0.00     0.005 C 
ENDBRANCH  25  26
ENDBRANCH   1  25
TORSDOF 5
ENDMDL
MODEL 9
REMARK VINA RESULT:    -7.593      3.548      6.751
REMARK INTER + INTRA:         -10.518
REMARK INTER:                  -9.578
REMARK INTRA:                  -0.940
REMARK UNBOUND:                -0.706
REMARK SMILES C=CCN1C[C@H](C(=O)N(CC)CC)C=C2c3cccc4[nH]cc(c34)C[C@H]21
REMARK SMILES IDX 4 1 21 2 26 3 15 4 25 5 6 6 5 7 23 8 16 9 14 10 24 11 20 12
REMARK SMILES IDX 22 13 17 14 19 15 18 16 7 18 8 19 9 20 10 21 11 22 12 23
REMARK SMILES IDX 13 24 3 25 2 26 1 27
REMARK H PARENT 21 17
ROOT
ATOM      1  N   UNL     1      22.633  18.921  12.484  1.00  0.00    -0.291 NA
ATOM      2  N   UNL     1      25.308  18.459  17.877  1.00  0.00    -0.361 N 
ATOM      3  C   UNL     1      23.225  19.239  13.810  1.00  0.00     0.092 C 
ATOM      4  C   UNL     1      22.260  20.005  14.766  1.00  0.00    -0.026 C 
ATOM      5  C   UNL     1      24.033  18.043  14.439  1.00  0.00     0.061 C 
ATOM      6  C   UNL     1      20.741  20.576  12.847  1.00  0.00     0.116 C 
ATOM      7  C   UNL     1      21.882  20.065  11.948  1.00  0.00     0.103 C 
ATOM      8  C   UNL     1      24.446  18.348  15.835  1.00  0.00    -0.020 A 
ATOM      9  C   UNL     1      22.677  20.151  16.185  1.00  0.00    -0.011 A 
ATOM     10  C   UNL     1      21.127  20.581  14.309  1.00  0.00    -0.007 C 
ATOM     11  C   UNL     1      23.744  19.326  16.574  1.00  0.00     0.010 A 
ATOM     12  C   UNL     1      24.283  19.380  17.849  1.00  0.00     0.046 A 
ATOM     13  C   UNL     1      25.413  17.823  16.660  1.00  0.00     0.087 A 
ATOM     14  C   UNL     1      22.175  21.035  17.151  1.00  0.00     0.009 A 
ATOM     15  C   UNL     1      23.786  20.250  18.820  1.00  0.00     0.027 A 
ATOM     16  C   UNL     1      22.719  21.077  18.442  1.00  0.00     0.003 A 
ATOM     17  H   UNL     1      25.891  18.274  18.681  1.00  0.00     0.166 HD
ENDROOT
BRANCH   6  18
ATOM     18  C   UNL     1      20.352  21.994  12.378  1.00  0.00     0.230 C 
ATOM     19  O   UNL     1      21.052  22.969  12.668  1.00  0.00    -0.274 OA
ATOM     20  N   UNL     1      19.210  22.141  11.583  1.00  0.00    -0.343 N 
BRANCH  20  21
ATOM     21  C   UNL     1      18.876  23.496  11.134  1.00  0.00     0.116 C 
ATOM     22  C   UNL     1      17.395  23.689  10.840  1.00  0.00     0.027 C 
ENDBRANCH  20  21
BRANCH  20  23
ATOM     23  C   UNL     1      18.237  21.079  11.306  1.00  0.00     0.116 C 
ATOM     24  C   UNL     1      18.525  20.323  10.018  1.00  0.00     0.027 C 
ENDBRANCH  20  23
ENDBRANCH   6  18
BRANCH   1  25
ATOM     25  C   UNL     1      22.000  17.618  12.300  1.00  0.00     0.112 C 
BRANCH  25  26
ATOM     26  C   UNL     1      21.304  17.340  10.998  1.00  0.00    -0.019 C 
ATOM     27  C   UNL     1      20.028  16.942  10.887  1.00  0.00     0.005 C 
ENDBRANCH  25  26
ENDBRANCH   1  25
TORSDOF 5
ENDMDL
MODEL 10
REMARK VINA RESULT:    -7.580      3.122      7.213
REMARK INTER + INTRA:         -10.502
REMARK INTER:                  -9.947
REMARK INTRA:                  -0.555
REMARK UNBOUND:                -0.706
REMARK SMILES C=CCN1C[C@H](C(=O)N(CC)CC)C=C2c3cccc4[nH]cc(c34)C[C@H]21
REMARK SMILES IDX 4 1 21 2 26 3 15 4 25 5 6 6 5 7 23 8 16 9 14 10 24 11 20 12
REMARK SMILES IDX 22 13 17 14 19 15 18 16 7 18 8 19 9 20 10 21 11 22 12 23
REMARK SMILES IDX 13 24 3 25 2 26 1 27
REMARK H PARENT 21 17
ROOT
ATOM      1  N   UNL     1      21.473  17.782  12.548  1.00  0.00    -0.291 NA
ATOM      2  N   UNL     1      17.768  21.755   9.912  1.00  0.00    -0.361 N 
ATOM      3  C   UNL     1      20.577  18.942  12.296  1.00  0.00     0.092 C 
ATOM      4  C   UNL     1      21.220  20.323  12.632  1.00  0.00    -0.026 C 
ATOM      5  C   UNL     1      19.793  18.844  10.934  1.00  0.00     0.061 C 
ATOM      6  C   UNL     1      23.043  19.203  13.952  1.00  0.00     0.116 C 
ATOM      7  C   UNL     1      22.188  17.929  13.824  1.00  0.00     0.103 C 
ATOM      8  C   UNL     1      19.058  20.104  10.646  1.00  0.00    -0.020 A 
ATOM      9  C   UNL     1      20.493  21.540  12.188  1.00  0.00    -0.011 A 
ATOM     10  C   UNL     1      22.352  20.413  13.362  1.00  0.00    -0.007 C 
ATOM     11  C   UNL     1      19.468  21.309  11.258  1.00  0.00     0.010 A 
ATOM     12  C   UNL     1      18.664  22.334  10.786  1.00  0.00     0.046 A 
ATOM     13  C   UNL     1      18.001  20.400   9.817  1.00  0.00     0.087 A 
ATOM     14  C   UNL     1      20.671  22.862  12.619  1.00  0.00     0.009 A 
ATOM     15  C   UNL     1      18.838  23.655  11.202  1.00  0.00     0.027 A 
ATOM     16  C   UNL     1      19.860  23.896  12.130  1.00  0.00     0.003 A 
ATOM     17  H   UNL     1      17.051  22.258   9.410  1.00  0.00     0.166 HD
ENDROOT
BRANCH   6  18
ATOM     18  C   UNL     1      23.360  19.426  15.445  1.00  0.00     0.230 C 
ATOM     19  O   UNL     1      22.605  20.096  16.158  1.00  0.00    -0.274 OA
ATOM     20  N   UNL     1      24.501  18.818  15.980  1.00  0.00    -0.343 N 
BRANCH  20  21
ATOM     21  C   UNL     1      24.767  19.030  17.406  1.00  0.00     0.116 C 
ATOM     22  C   UNL     1      24.767  17.745  18.221  1.00  0.00     0.027 C 
ENDBRANCH  20  21
BRANCH  20  23
ATOM     23  C   UNL     1      25.532  18.131  15.196  1.00  0.00     0.116 C 
ATOM     24  C   UNL     1      26.947  18.486  15.625  1.00  0.00     0.027 C 
ENDBRANCH  20  23
ENDBRANCH   6  18
BRANCH   1  25
ATOM     25  C   UNL     1      22.275  17.270  11.440  1.00  0.00     0.112 C 
BRANCH  25  26
ATOM     26  C   UNL     1      21.861  15.977  10.796  1.00  0.00    -0.019 C 
ATOM     27  C   UNL     1      22.505  15.396   9.774  1.00  0.00     0.005 C 
ENDBRANCH  25  26
ENDBRANCH   1  25
TORSDOF 5
ENDMDL
MODEL 11
REMARK VINA RESULT:    -7.446      3.237      6.033
REMARK INTER + INTRA:         -10.328
REMARK INTER:                  -9.504
REMARK INTRA:                  -0.825
REMARK UNBOUND:                -0.706
REMARK SMILES C=CCN1C[C@H](C(=O)N(CC)CC)C=C2c3cccc4[nH]cc(c34)C[C@H]21
REMARK SMILES IDX 4 1 21 2 26 3 15 4 25 5 6 6 5 7 23 8 16 9 14 10 24 11 20 12
REMARK SMILES IDX 22 13 17 14 19 15 18 16 7 18 8 19 9 20 10 21 11 22 12 23
REMARK SMILES IDX 13 24 3 25 2 26 1 27
REMARK H PARENT 21 17
ROOT
ATOM      1  N   UNL     1      18.974  22.834  11.465  1.00  0.00    -0.291 NA
ATOM      2  N   UNL     1      20.509  17.090  10.413  1.00  0.00    -0.361 N 
ATOM      3  C   UNL     1      19.704  21.538  11.436  1.00  0.00     0.092 C 
ATOM      4  C   UNL     1      20.086  20.996  12.848  1.00  0.00    -0.026 C 
ATOM      5  C   UNL     1      19.094  20.497  10.424  1.00  0.00     0.061 C 
ATOM      6  C   UNL     1      19.646  23.245  13.880  1.00  0.00     0.116 C 
ATOM      7  C   UNL     1      19.576  23.763  12.432  1.00  0.00     0.103 C 
ATOM      8  C   UNL     1      19.742  19.167  10.566  1.00  0.00    -0.020 A 
ATOM      9  C   UNL     1      20.598  19.604  12.928  1.00  0.00    -0.011 A 
ATOM     10  C   UNL     1      20.027  21.782  13.944  1.00  0.00    -0.007 C 
ATOM     11  C   UNL     1      20.399  18.834  11.772  1.00  0.00     0.010 A 
ATOM     12  C   UNL     1      20.864  17.533  11.669  1.00  0.00     0.046 A 
ATOM     13  C   UNL     1      19.823  18.074   9.735  1.00  0.00     0.087 A 
ATOM     14  C   UNL     1      21.292  18.994  13.982  1.00  0.00     0.009 A 
ATOM     15  C   UNL     1      21.549  16.913  12.716  1.00  0.00     0.027 A 
ATOM     16  C   UNL     1      21.752  17.673  13.876  1.00  0.00     0.003 A 
ATOM     17  H   UNL     1      20.718  16.171  10.049  1.00  0.00     0.166 HD
ENDROOT
BRANCH   6  18
ATOM     18  C   UNL     1      20.662  24.109  14.656  1.00  0.00     0.230 C 
ATOM     19  O   UNL     1      21.710  24.485  14.122  1.00  0.00    -0.274 OA
ATOM     20  N   UNL     1      20.347  24.490  15.965  1.00  0.00    -0.343 N 
BRANCH  20  21
ATOM     21  C   UNL     1      21.320  25.328  16.672  1.00  0.00     0.116 C 
ATOM     22  C   UNL     1      20.995  26.814  16.616  1.00  0.00     0.027 C 
ENDBRANCH  20  21
BRANCH  20  23
ATOM     23  C   UNL     1      19.208  23.981  16.737  1.00  0.00     0.116 C 
ATOM     24  C   UNL     1      19.607  23.418  18.092  1.00  0.00     0.027 C 
ENDBRANCH  20  23
ENDBRANCH   6  18
BRANCH   1  25
ATOM     25  C   UNL     1      17.514  22.809  11.452  1.00  0.00     0.112 C 
BRANCH  25  26
ATOM     26  C   UNL     1      16.792  23.760  10.540  1.00  0.00    -0.019 C 
ATOM     27  C   UNL     1      17.368  24.438   9.537  1.00  0.00     0.005 C 
ENDBRANCH  25  26
ENDBRANCH   1  25
TORSDOF 5
ENDMDL
MODEL 12
REMARK VINA RESULT:    -7.417      2.986      7.730
REMARK INTER + INTRA:         -10.291
REMARK INTER:                  -9.732
REMARK INTRA:                  -0.559
REMARK UNBOUND:                -0.706
REMARK SMILES C=CCN1C[C@H](C(=O)N(CC)CC)C=C2c3cccc4[nH]cc(c34)C[C@H]21
REMARK SMILES IDX 4 1 21 2 26 3 15 4 25 5 6 6 5 7 23 8 16 9 14 10 24 11 20 12
REMARK SMILES IDX 22 13 17 14 19 15 18 16 7 18 8 19 9 20 10 21 11 22 12 23
REMARK SMILES IDX 13 24 3 25 2 26 1 27
REMARK H PARENT 21 17
ROOT
ATOM      1  N   UNL     1      18.981  21.778  12.077  1.00  0.00    -0.291 NA
ATOM      2  N   UNL     1      21.253  23.019  17.531  1.00  0.00    -0.361 N 
ATOM      3  C   UNL     1      19.623  21.655  13.412  1.00  0.00     0.092 C 
ATOM      4  C   UNL     1      21.044  21.012  13.373  1.00  0.00    -0.026 C 
ATOM      5  C   UNL     1      19.457  22.938  14.309  1.00  0.00     0.061 C 
ATOM      6  C   UNL     1      20.643  20.158  11.043  1.00  0.00     0.116 C 
ATOM      7  C   UNL     1      19.175  20.560  11.278  1.00  0.00     0.103 C 
ATOM      8  C   UNL     1      20.268  22.835  15.551  1.00  0.00    -0.020 A 
ATOM      9  C   UNL     1      21.853  21.069  14.618  1.00  0.00    -0.011 A 
ATOM     10  C   UNL     1      21.493  20.361  12.279  1.00  0.00    -0.007 C 
ATOM     11  C   UNL     1      21.373  21.956  15.594  1.00  0.00     0.010 A 
ATOM     12  C   UNL     1      21.986  22.087  16.829  1.00  0.00     0.046 A 
ATOM     13  C   UNL     1      20.208  23.483  16.763  1.00  0.00     0.087 A 
ATOM     14  C   UNL     1      22.990  20.319  14.949  1.00  0.00     0.009 A 
ATOM     15  C   UNL     1      23.123  21.351  17.166  1.00  0.00     0.027 A 
ATOM     16  C   UNL     1      23.612  20.463  16.198  1.00  0.00     0.003 A 
ATOM     17  H   UNL     1      21.461  23.321  18.472  1.00  0.00     0.166 HD
ENDROOT
BRANCH   6  18
ATOM     18  C   UNL     1      20.677  18.684  10.591  1.00  0.00     0.230 C 
ATOM     19  O   UNL     1      20.393  17.775  11.377  1.00  0.00    -0.274 OA
ATOM     20  N   UNL     1      20.998  18.406   9.257  1.00  0.00    -0.343 N 
BRANCH  20  21
ATOM     21  C   UNL     1      21.003  16.998   8.849  1.00  0.00     0.116 C 
ATOM     22  C   UNL     1      22.251  16.244   9.286  1.00  0.00     0.027 C 
ENDBRANCH  20  21
BRANCH  20  23
ATOM     23  C   UNL     1      21.490  19.391   8.289  1.00  0.00     0.116 C 
ATOM     24  C   UNL     1      21.904  18.772   6.962  1.00  0.00     0.027 C 
ENDBRANCH  20  23
ENDBRANCH   6  18
BRANCH   1  25
ATOM     25  C   UNL     1      19.132  23.033  11.346  1.00  0.00     0.112 C 
BRANCH  25  26
ATOM     26  C   UNL     1      17.993  23.499  10.485  1.00  0.00    -0.019 C 
ATOM     27  C   UNL     1      16.700  23.438  10.834  1.00  0.00     0.005 C 
ENDBRANCH  25  26
ENDBRANCH   1  25
TORSDOF 5
ENDMDL
MODEL 13
REMARK VINA RESULT:    -7.305      3.885      7.612
REMARK INTER + INTRA:         -10.146
REMARK INTER:                 -10.231
REMARK INTRA:                   0.085
REMARK UNBOUND:                -0.706
REMARK SMILES C=CCN1C[C@H](C(=O)N(CC)CC)C=C2c3cccc4[nH]cc(c34)C[C@H]21
REMARK SMILES IDX 4 1 21 2 26 3 15 4 25 5 6 6 5 7 23 8 16 9 14 10 24 11 20 12
REMARK SMILES IDX 22 13 17 14 19 15 18 16 7 18 8 19 9 20 10 21 11 22 12 23
REMARK SMILES IDX 13 24 3 25 2 26 1 27
REMARK H PARENT 21 17
ROOT
ATOM      1  N   UNL     1      21.420  21.866  14.279  1.00  0.00    -0.291 NA
ATOM      2  N   UNL     1      24.153  19.601  19.164  1.00  0.00    -0.361 N 
ATOM      3  C   UNL     1      21.977  20.932  15.294  1.00  0.00     0.092 C 
ATOM      4  C   UNL     1      22.962  19.875  14.706  1.00  0.00    -0.026 C 
ATOM      5  C   UNL     1      22.423  21.645  16.625  1.00  0.00     0.061 C 
ATOM      6  C   UNL     1      22.161  20.359  12.373  1.00  0.00     0.116 C 
ATOM      7  C   UNL     1      21.032  21.153  13.055  1.00  0.00     0.103 C 
ATOM      8  C   UNL     1      23.136  20.701  17.527  1.00  0.00    -0.020 A 
ATOM      9  C   UNL     1      23.746  19.062  15.672  1.00  0.00    -0.011 A 
ATOM     10  C   UNL     1      23.045  19.651  13.377  1.00  0.00    -0.007 C 
ATOM     11  C   UNL     1      23.736  19.540  16.991  1.00  0.00     0.010 A 
ATOM     12  C   UNL     1      24.376  18.867  18.019  1.00  0.00     0.046 A 
ATOM     13  C   UNL     1      23.403  20.720  18.876  1.00  0.00     0.087 A 
ATOM     14  C   UNL     1      24.439  17.866  15.438  1.00  0.00     0.009 A 
ATOM     15  C   UNL     1      25.076  17.680  17.795  1.00  0.00     0.027 A 
ATOM     16  C   UNL     1      25.093  17.194  16.480  1.00  0.00     0.003 A 
ATOM     17  H   UNL     1      24.499  19.353  20.080  1.00  0.00     0.166 HD
ENDROOT
BRANCH   6  18
ATOM     18  C   UNL     1      21.524  19.349  11.397  1.00  0.00     0.230 C 
ATOM     19  O   UNL     1      21.546  19.548  10.178  1.00  0.00    -0.274 OA
ATOM     20  N   UNL     1      20.959  18.182  11.924  1.00  0.00    -0.343 N 
BRANCH  20  21
ATOM     21  C   UNL     1      20.379  17.229  10.972  1.00  0.00     0.116 C 
ATOM     22  C   UNL     1      21.303  16.068  10.637  1.00  0.00     0.027 C 
ENDBRANCH  20  21
BRANCH  20  23
ATOM     23  C   UNL     1      20.752  17.920  13.352  1.00  0.00     0.116 C 
ATOM     24  C   UNL     1      19.311  18.119  13.795  1.00  0.00     0.027 C 
ENDBRANCH  20  23
ENDBRANCH   6  18
BRANCH   1  25
ATOM     25  C   UNL     1      22.094  23.144  14.068  1.00  0.00     0.112 C 
BRANCH  25  26
ATOM     26  C   UNL     1      21.317  24.409  14.302  1.00  0.00    -0.019 C 
ATOM     27  C   UNL     1      21.095  24.953  15.507  1.00  0.00     0.005 C 
ENDBRANCH  25  26
ENDBRANCH   1  25
TORSDOF 5
ENDMDL
MODEL 14
REMARK VINA RESULT:    -7.301      2.091      6.558
REMARK INTER + INTRA:         -10.141
REMARK INTER:                 -10.863
REMARK INTRA:                   0.722
REMARK UNBOUND:                -0.706
REMARK SMILES C=CCN1C[C@H](C(=O)N(CC)CC)C=C2c3cccc4[nH]cc(c34)C[C@H]21
REMARK SMILES IDX 4 1 21 2 26 3 15 4 25 5 6 6 5 7 23 8 16 9 14 10 24 11 20 12
REMARK SMILES IDX 22 13 17 14 19 15 18 16 7 18 8 19 9 20 10 21 11 22 12 23
REMARK SMILES IDX 13 24 3 25 2 26 1 27
REMARK H PARENT 21 17
ROOT
ATOM      1  N   UNL     1      22.496  19.098  12.842  1.00  0.00    -0.291 NA
ATOM      2  N   UNL     1      19.271  24.126  11.964  1.00  0.00    -0.361 N 
ATOM      3  C   UNL     1      21.696  20.184  12.216  1.00  0.00     0.092 C 
ATOM      4  C   UNL     1      20.427  19.679  11.461  1.00  0.00    -0.026 C 
ATOM      5  C   UNL     1      21.506  21.439  13.147  1.00  0.00     0.061 C 
ATOM      6  C   UNL     1      21.305  17.324  11.467  1.00  0.00     0.116 C 
ATOM      7  C   UNL     1      22.632  17.948  11.937  1.00  0.00     0.103 C 
ATOM      8  C   UNL     1      20.552  22.412  12.551  1.00  0.00    -0.020 A 
ATOM      9  C   UNL     1      19.447  20.703  11.015  1.00  0.00    -0.011 A 
ATOM     10  C   UNL     1      20.262  18.375  11.156  1.00  0.00    -0.007 C 
ATOM     11  C   UNL     1      19.620  21.974  11.584  1.00  0.00     0.010 A 
ATOM     12  C   UNL     1      18.819  23.048  11.233  1.00  0.00     0.046 A 
ATOM     13  C   UNL     1      20.323  23.750  12.771  1.00  0.00     0.087 A 
ATOM     14  C   UNL     1      18.419  20.567  10.072  1.00  0.00     0.009 A 
ATOM     15  C   UNL     1      17.788  22.922  10.301  1.00  0.00     0.027 A 
ATOM     16  C   UNL     1      17.606  21.656   9.727  1.00  0.00     0.003 A 
ATOM     17  H   UNL     1      18.879  25.056  11.916  1.00  0.00     0.166 HD
ENDROOT
BRANCH   6  18
ATOM     18  C   UNL     1      21.591  16.451  10.228  1.00  0.00     0.230 C 
ATOM     19  O   UNL     1      21.793  15.238  10.342  1.00  0.00    -0.274 OA
ATOM     20  N   UNL     1      21.574  17.061   8.968  1.00  0.00    -0.343 N 
BRANCH  20  21
ATOM     21  C   UNL     1      21.828  16.204   7.806  1.00  0.00     0.116 C 
ATOM     22  C   UNL     1      23.268  15.723   7.710  1.00  0.00     0.027 C 
ENDBRANCH  20  21
BRANCH  20  23
ATOM     23  C   UNL     1      21.491  18.506   8.736  1.00  0.00     0.116 C 
ATOM     24  C   UNL     1      21.857  18.907   7.315  1.00  0.00     0.027 C 
ENDBRANCH  20  23
ENDBRANCH   6  18
BRANCH   1  25
ATOM     25  C   UNL     1      22.241  18.763  14.240  1.00  0.00     0.112 C 
BRANCH  25  26
ATOM     26  C   UNL     1      23.083  17.700  14.886  1.00  0.00    -0.019 C 
ATOM     27  C   UNL     1      24.173  17.940  15.629  1.00  0.00     0.005 C 
ENDBRANCH  25  26
ENDBRANCH   1  25
TORSDOF 5
ENDMDL
MODEL 15
REMARK VINA RESULT:    -7.249      4.487      7.127
REMARK INTER + INTRA:         -10.074
REMARK INTER:                  -9.229
REMARK INTRA:                  -0.845
REMARK UNBOUND:                -0.706
REMARK SMILES C=CCN1C[C@H](C(=O)N(CC)CC)C=C2c3cccc4[nH]cc(c34)C[C@H]21
REMARK SMILES IDX 4 1 21 2 26 3 15 4 25 5 6 6 5 7 23 8 16 9 14 10 24 11 20 12
REMARK SMILES IDX 22 13 17 14 19 15 18 16 7 18 8 19 9 20 10 21 11 22 12 23
REMARK SMILES IDX 13 24 3 25 2 26 1 27
REMARK H PARENT 21 17
ROOT
ATOM      1  N   UNL     1      20.352  22.620  12.730  1.00  0.00    -0.291 NA
ATOM      2  N   UNL     1      24.473  18.348  13.837  1.00  0.00    -0.361 N 
ATOM      3  C   UNL     1      21.503  21.865  13.293  1.00  0.00     0.092 C 
ATOM      4  C   UNL     1      21.453  21.700  14.843  1.00  0.00    -0.026 C 
ATOM      5  C   UNL     1      21.878  20.582  12.461  1.00  0.00     0.061 C 
ATOM      6  C   UNL     1      19.712  23.503  15.025  1.00  0.00     0.116 C 
ATOM      7  C   UNL     1      20.037  23.799  13.549  1.00  0.00     0.103 C 
ATOM      8  C   UNL     1      22.907  19.769  13.162  1.00  0.00    -0.020 A 
ATOM      9  C   UNL     1      22.425  20.761  15.461  1.00  0.00    -0.011 A 
ATOM     10  C   UNL     1      20.615  22.436  15.603  1.00  0.00    -0.007 C 
ATOM     11  C   UNL     1      23.075  19.905  14.558  1.00  0.00     0.010 A 
ATOM     12  C   UNL     1      24.046  19.007  14.970  1.00  0.00     0.046 A 
ATOM     13  C   UNL     1      23.785  18.800  12.732  1.00  0.00     0.087 A 
ATOM     14  C   UNL     1      22.804  20.665  16.807  1.00  0.00     0.009 A 
ATOM     15  C   UNL     1      24.424  18.897  16.309  1.00  0.00     0.027 A 
ATOM     16  C   UNL     1      23.781  19.747  17.219  1.00  0.00     0.003 A 
ATOM     17  H   UNL     1      25.184  17.631  13.824  1.00  0.00     0.166 HD
ENDROOT
BRANCH   6  18
ATOM     18  C   UNL     1      19.836  24.817  15.823  1.00  0.00     0.230 C 
ATOM     19  O   UNL     1      20.771  25.596  15.615  1.00  0.00    -0.274 OA
ATOM     20  N   UNL     1      18.840  25.123  16.757  1.00  0.00    -0.343 N 
BRANCH  20  21
ATOM     21  C   UNL     1      18.971  26.388  17.487  1.00  0.00     0.116 C 
ATOM     22  C   UNL     1      17.713  27.243  17.450  1.00  0.00     0.027 C 
ENDBRANCH  20  21
BRANCH  20  23
ATOM     23  C   UNL     1      17.776  24.207  17.181  1.00  0.00     0.116 C 
ATOM     24  C   UNL     1      18.148  23.381  18.404  1.00  0.00     0.027 C 
ENDBRANCH  20  23
ENDBRANCH   6  18
BRANCH   1  25
ATOM     25  C   UNL     1      19.196  21.868  12.250  1.00  0.00     0.112 C 
BRANCH  25  26
ATOM     26  C   UNL     1      18.674  22.163  10.872  1.00  0.00    -0.019 C 
ATOM     27  C   UNL     1      18.199  21.239  10.025  1.00  0.00     0.005 C 
ENDBRANCH  25  26
ENDBRANCH   1  25
TORSDOF 5
ENDMDL
MODEL 16
REMARK VINA RESULT:    -7.217      4.590      7.625
REMARK INTER + INTRA:         -10.032
REMARK INTER:                  -9.554
REMARK INTRA:                  -0.478
REMARK UNBOUND:                -0.706
REMARK SMILES C=CCN1C[C@H](C(=O)N(CC)CC)C=C2c3cccc4[nH]cc(c34)C[C@H]21
REMARK SMILES IDX 4 1 21 2 26 3 15 4 25 5 6 6 5 7 23 8 16 9 14 10 24 11 20 12
REMARK SMILES IDX 22 13 17 14 19 15 18 16 7 18 8 19 9 20 10 21 11 22 12 23
REMARK SMILES IDX 13 24 3 25 2 26 1 27
REMARK H PARENT 21 17
ROOT
ATOM      1  N   UNL     1      21.394  22.254  15.926  1.00  0.00    -0.291 NA
ATOM      2  N   UNL     1      24.940  18.948  19.524  1.00  0.00    -0.361 N 
ATOM      3  C   UNL     1      22.086  21.115  16.584  1.00  0.00     0.092 C 
ATOM      4  C   UNL     1      22.846  20.180  15.592  1.00  0.00    -0.026 C 
ATOM      5  C   UNL     1      22.856  21.521  17.896  1.00  0.00     0.061 C 
ATOM      6  C   UNL     1      21.601  21.162  13.642  1.00  0.00     0.116 C 
ATOM      7  C   UNL     1      20.702  21.824  14.703  1.00  0.00     0.103 C 
ATOM      8  C   UNL     1      23.677  20.392  18.409  1.00  0.00    -0.020 A 
ATOM      9  C   UNL     1      23.758  19.163  16.176  1.00  0.00    -0.011 A 
ATOM     10  C   UNL     1      22.627  20.238  14.261  1.00  0.00    -0.007 C 
ATOM     11  C   UNL     1      24.064  19.355  17.532  1.00  0.00     0.010 A 
ATOM     12  C   UNL     1      24.861  18.465  18.236  1.00  0.00     0.046 A 
ATOM     13  C   UNL     1      24.227  20.121  19.640  1.00  0.00     0.087 A 
ATOM     14  C   UNL     1      24.299  18.026  15.560  1.00  0.00     0.009 A 
ATOM     15  C   UNL     1      25.410  17.334  17.630  1.00  0.00     0.027 A 
ATOM     16  C   UNL     1      25.112  17.134  16.275  1.00  0.00     0.003 A 
ATOM     17  H   UNL     1      25.455  18.505  20.272  1.00  0.00     0.166 HD
ENDROOT
BRANCH   6  18
ATOM     18  C   UNL     1      20.700  20.396  12.652  1.00  0.00     0.230 C 
ATOM     19  O   UNL     1      20.701  19.161  12.623  1.00  0.00    -0.274 OA
ATOM     20  N   UNL     1      19.853  21.133  11.817  1.00  0.00    -0.343 N 
BRANCH  20  21
ATOM     21  C   UNL     1      18.992  20.378  10.901  1.00  0.00     0.116 C 
ATOM     22  C   UNL     1      19.658  20.056   9.571  1.00  0.00     0.027 C 
ENDBRANCH  20  21
BRANCH  20  23
ATOM     23  C   UNL     1      19.881  22.591  11.670  1.00  0.00     0.116 C 
ATOM     24  C   UNL     1      18.559  23.170  11.189  1.00  0.00     0.027 C 
ENDBRANCH  20  23
ENDBRANCH   6  18
BRANCH   1  25
ATOM     25  C   UNL     1      22.096  23.531  15.828  1.00  0.00     0.112 C 
BRANCH  25  26
ATOM     26  C   UNL     1      21.534  24.714  16.566  1.00  0.00    -0.019 C 
ATOM     27  C   UNL     1      20.855  24.638  17.719  1.00  0.00     0.005 C 
ENDBRANCH  25  26
ENDBRANCH   1  25
TORSDOF 5
ENDMDL
MODEL 17
REMARK VINA RESULT:    -7.059      2.740      7.611
REMARK INTER + INTRA:          -9.828
REMARK INTER:                  -8.969
REMARK INTRA:                  -0.858
REMARK UNBOUND:                -0.706
REMARK SMILES C=CCN1C[C@H](C(=O)N(CC)CC)C=C2c3cccc4[nH]cc(c34)C[C@H]21
REMARK SMILES IDX 4 1 21 2 26 3 15 4 25 5 6 6 5 7 23 8 16 9 14 10 24 11 20 12
REMARK SMILES IDX 22 13 17 14 19 15 18 16 7 18 8 19 9 20 10 21 11 22 12 23
REMARK SMILES IDX 13 24 3 25 2 26 1 27
REMARK H PARENT 21 17
ROOT
ATOM      1  N   UNL     1      22.640  20.346  13.617  1.00  0.00    -0.291 NA
ATOM      2  N   UNL     1      18.461  24.038  15.932  1.00  0.00    -0.361 N 
ATOM      3  C   UNL     1      21.485  21.271  13.769  1.00  0.00     0.092 C 
ATOM      4  C   UNL     1      20.144  20.704  13.209  1.00  0.00    -0.026 C 
ATOM      5  C   UNL     1      21.420  21.966  15.180  1.00  0.00     0.061 C 
ATOM      6  C   UNL     1      21.377  18.922  11.935  1.00  0.00     0.116 C 
ATOM      7  C   UNL     1      22.647  19.717  12.289  1.00  0.00     0.103 C 
ATOM      8  C   UNL     1      20.155  22.731  15.344  1.00  0.00    -0.020 A 
ATOM      9  C   UNL     1      18.900  21.450  13.532  1.00  0.00    -0.011 A 
ATOM     10  C   UNL     1      20.119  19.623  12.400  1.00  0.00    -0.007 C 
ATOM     11  C   UNL     1      19.034  22.407  14.550  1.00  0.00     0.010 A 
ATOM     12  C   UNL     1      17.979  23.220  14.932  1.00  0.00     0.046 A 
ATOM     13  C   UNL     1      19.782  23.747  16.194  1.00  0.00     0.087 A 
ATOM     14  C   UNL     1      17.645  21.351  12.917  1.00  0.00     0.009 A 
ATOM     15  C   UNL     1      16.723  23.124  14.332  1.00  0.00     0.027 A 
ATOM     16  C   UNL     1      16.579  22.171  13.315  1.00  0.00     0.003 A 
ATOM     17  H   UNL     1      17.916  24.743  16.408  1.00  0.00     0.166 HD
ENDROOT
BRANCH   6  18
ATOM     18  C   UNL     1      21.350  18.706  10.408  1.00  0.00     0.230 C 
ATOM     19  O   UNL     1      21.494  19.656   9.632  1.00  0.00    -0.274 OA
ATOM     20  N   UNL     1      21.199  17.401   9.925  1.00  0.00    -0.343 N 
BRANCH  20  21
ATOM     21  C   UNL     1      21.197  17.221   8.470  1.00  0.00     0.116 C 
ATOM     22  C   UNL     1      22.328  16.336   7.966  1.00  0.00     0.027 C 
ENDBRANCH  20  21
BRANCH  20  23
ATOM     23  C   UNL     1      20.876  16.232  10.749  1.00  0.00     0.116 C 
ATOM     24  C   UNL     1      19.411  15.829  10.670  1.00  0.00     0.027 C 
ENDBRANCH  20  23
ENDBRANCH   6  18
BRANCH   1  25
ATOM     25  C   UNL     1      22.971  19.459  14.729  1.00  0.00     0.112 C 
BRANCH  25  26
ATOM     26  C   UNL     1      24.149  18.538  14.581  1.00  0.00    -0.019 C 
ATOM     27  C   UNL     1      25.189  18.491  15.426  1.00  0.00     0.005 C 
ENDBRANCH  25  26
ENDBRANCH   1  25
TORSDOF 5
ENDMDL
MODEL 18
REMARK VINA RESULT:    -7.057      4.193      6.702
REMARK INTER + INTRA:          -9.825
REMARK INTER:                  -9.056
REMARK INTRA:                  -0.769
REMARK UNBOUND:                -0.706
REMARK SMILES C=CCN1C[C@H](C(=O)N(CC)CC)C=C2c3cccc4[nH]cc(c34)C[C@H]21
REMARK SMILES IDX 4 1 21 2 26 3 15 4 25 5 6 6 5 7 23 8 16 9 14 10 24 11 20 12
REMARK SMILES IDX 22 13 17 14 19 15 18 16 7 18 8 19 9 20 10 21 11 22 12 23
REMARK SMILES IDX 13 24 3 25 2 26 1 27
REMARK H PARENT 21 17
ROOT
ATOM      1  N   UNL     1      20.840  21.741  14.903  1.00  0.00    -0.291 NA
ATOM      2  N   UNL     1      18.928  19.857   9.494  1.00  0.00    -0.361 N 
ATOM      3  C   UNL     1      19.993  21.442  13.718  1.00  0.00     0.092 C 
ATOM      4  C   UNL     1      19.266  22.691  13.130  1.00  0.00    -0.026 C 
ATOM      5  C   UNL     1      20.681  20.477  12.682  1.00  0.00     0.061 C 
ATOM      6  C   UNL     1      19.728  24.002  15.224  1.00  0.00     0.116 C 
ATOM      7  C   UNL     1      20.157  22.653  15.830  1.00  0.00     0.103 C 
ATOM      8  C   UNL     1      19.873  20.358  11.439  1.00  0.00    -0.020 A 
ATOM      9  C   UNL     1      18.597  22.534  11.813  1.00  0.00    -0.011 A 
ATOM     10  C   UNL     1      19.182  23.847  13.822  1.00  0.00    -0.007 C 
ATOM     11  C   UNL     1      18.946  21.372  11.108  1.00  0.00     0.010 A 
ATOM     12  C   UNL     1      18.370  21.054   9.888  1.00  0.00     0.046 A 
ATOM     13  C   UNL     1      19.846  19.426  10.428  1.00  0.00     0.087 A 
ATOM     14  C   UNL     1      17.634  23.366  11.224  1.00  0.00     0.009 A 
ATOM     15  C   UNL     1      17.417  21.880   9.289  1.00  0.00     0.027 A 
ATOM     16  C   UNL     1      17.062  23.044   9.985  1.00  0.00     0.003 A 
ATOM     17  H   UNL     1      18.699  19.372   8.638  1.00  0.00     0.166 HD
ENDROOT
BRANCH   6  18
ATOM     18  C   UNL     1      18.676  24.640  16.154  1.00  0.00     0.230 C 
ATOM     19  O   UNL     1      17.471  24.442  15.974  1.00  0.00    -0.274 OA
ATOM     20  N   UNL     1      19.124  25.414  17.231  1.00  0.00    -0.343 N 
BRANCH  20  21
ATOM     21  C   UNL     1      18.103  25.991  18.112  1.00  0.00     0.116 C 
ATOM     22  C   UNL     1      18.099  25.391  19.510  1.00  0.00     0.027 C 
ENDBRANCH  20  21
BRANCH  20  23
ATOM     23  C   UNL     1      20.514  25.828  17.447  1.00  0.00     0.116 C 
ATOM     24  C   UNL     1      20.867  27.130  16.746  1.00  0.00     0.027 C 
ENDBRANCH  20  23
ENDBRANCH   6  18
BRANCH   1  25
ATOM     25  C   UNL     1      22.259  22.015  14.691  1.00  0.00     0.112 C 
BRANCH  25  26
ATOM     26  C   UNL     1      23.158  22.094  15.892  1.00  0.00    -0.019 C 
ATOM     27  C   UNL     1      23.421  21.068  16.715  1.00  0.00     0.005 C 
ENDBRANCH  25  26
ENDBRANCH   1  25
TORSDOF 5
ENDMDL
MODEL 19
REMARK VINA RESULT:    -7.056      2.947      7.842
REMARK INTER + INTRA:          -9.824
REMARK INTER:                  -9.690
REMARK INTRA:                  -0.134
REMARK UNBOUND:                -0.706
REMARK SMILES C=CCN1C[C@H](C(=O)N(CC)CC)C=C2c3cccc4[nH]cc(c34)C[C@H]21
REMARK SMILES IDX 4 1 21 2 26 3 15 4 25 5 6 6 5 7 23 8 16 9 14 10 24 11 20 12
REMARK SMILES IDX 22 13 17 14 19 15 18 16 7 18 8 19 9 20 10 21 11 22 12 23
REMARK SMILES IDX 13 24 3 25 2 26 1 27
REMARK H PARENT 21 17
ROOT
ATOM      1  N   UNL     1      17.410  22.058  12.368  1.00  0.00    -0.291 NA
ATOM      2  N   UNL     1      20.137  23.493  17.560  1.00  0.00    -0.361 N 
ATOM      3  C   UNL     1      18.299  22.042  13.560  1.00  0.00     0.092 C 
ATOM      4  C   UNL     1      19.817  21.950  13.215  1.00  0.00    -0.026 C 
ATOM      5  C   UNL     1      17.891  23.092  14.660  1.00  0.00     0.061 C 
ATOM      6  C   UNL     1      19.285  21.238  10.864  1.00  0.00     0.116 C 
ATOM      7  C   UNL     1      17.841  21.070  11.369  1.00  0.00     0.103 C 
ATOM      8  C   UNL     1      18.911  23.163  15.740  1.00  0.00    -0.020 A 
ATOM      9  C   UNL     1      20.783  22.170  14.322  1.00  0.00    -0.011 A 
ATOM     10  C   UNL     1      20.239  21.607  11.979  1.00  0.00    -0.007 C 
ATOM     11  C   UNL     1      20.231  22.731  15.484  1.00  0.00     0.010 A 
ATOM     12  C   UNL     1      20.990  22.951  16.622  1.00  0.00     0.046 A 
ATOM     13  C   UNL     1      18.871  23.629  17.034  1.00  0.00     0.087 A 
ATOM     14  C   UNL     1      22.145  21.841  14.364  1.00  0.00     0.009 A 
ATOM     15  C   UNL     1      22.349  22.635  16.672  1.00  0.00     0.027 A 
ATOM     16  C   UNL     1      22.910  22.075  15.516  1.00  0.00     0.003 A 
ATOM     17  H   UNL     1      20.408  23.757  18.497  1.00  0.00     0.166 HD
ENDROOT
BRANCH   6  18
ATOM     18  C   UNL     1      19.719  19.921  10.187  1.00  0.00     0.230 C 
ATOM     19  O   UNL     1      20.084  19.908   9.007  1.00  0.00    -0.274 OA
ATOM     20  N   UNL     1      19.727  18.751  10.955  1.00  0.00    -0.343 N 
BRANCH  20  21
ATOM     21  C   UNL     1      20.164  17.518  10.292  1.00  0.00     0.116 C 
ATOM     22  C   UNL     1      19.027  16.546  10.011  1.00  0.00     0.027 C 
ENDBRANCH  20  21
BRANCH  20  23
ATOM     23  C   UNL     1      19.178  18.631  12.309  1.00  0.00     0.116 C 
ATOM     24  C   UNL     1      20.185  18.101  13.319  1.00  0.00     0.027 C 
ENDBRANCH  20  23
ENDBRANCH   6  18
BRANCH   1  25
ATOM     25  C   UNL     1      16.995  23.350  11.828  1.00  0.00     0.112 C 
BRANCH  25  26
ATOM     26  C   UNL     1      16.837  23.484  10.340  1.00  0.00    -0.019 C 
ATOM     27  C   UNL     1      17.475  24.391   9.586  1.00  0.00     0.005 C 
ENDBRANCH  25  26
ENDBRANCH   1  25
TORSDOF 5
ENDMDL
MODEL 20
REMARK VINA RESULT:    -7.028      4.527      6.932
REMARK INTER + INTRA:          -9.787
REMARK INTER:                  -9.847
REMARK INTRA:                   0.060
REMARK UNBOUND:                -0.706
REMARK SMILES C=CCN1C[C@H](C(=O)N(CC)CC)C=C2c3cccc4[nH]cc(c34)C[C@H]21
REMARK SMILES IDX 4 1 21 2 26 3 15 4 25 5 6 6 5 7 23 8 16 9 14 10 24 11 20 12
REMARK SMILES IDX 22 13 17 14 19 15 18 16 7 18 8 19 9 20 10 21 11 22 12 23
REMARK SMILES IDX 13 24 3 25 2 26 1 27
REMARK H PARENT 21 17
ROOT
ATOM      1  N   UNL     1      20.675  23.624  15.732  1.00  0.00    -0.291 NA
ATOM      2  N   UNL     1      23.987  18.877  17.451  1.00  0.00    -0.361 N 
ATOM      3  C   UNL     1      21.269  22.264  15.831  1.00  0.00     0.092 C 
ATOM      4  C   UNL     1      21.890  21.748  14.496  1.00  0.00    -0.026 C 
ATOM      5  C   UNL     1      22.124  22.047  17.135  1.00  0.00     0.061 C 
ATOM      6  C   UNL     1      20.684  23.527  13.193  1.00  0.00     0.116 C 
ATOM      7  C   UNL     1      19.898  23.777  14.494  1.00  0.00     0.103 C 
ATOM      8  C   UNL     1      22.841  20.745  17.096  1.00  0.00    -0.020 A 
ATOM      9  C   UNL     1      22.713  20.512  14.560  1.00  0.00    -0.011 A 
ATOM     10  C   UNL     1      21.630  22.352  13.318  1.00  0.00    -0.007 C 
ATOM     11  C   UNL     1      23.087  20.118  15.854  1.00  0.00     0.010 A 
ATOM     12  C   UNL     1      23.811  18.960  16.086  1.00  0.00     0.046 A 
ATOM     13  C   UNL     1      23.405  19.959  18.075  1.00  0.00     0.087 A 
ATOM     14  C   UNL     1      23.109  19.678  13.506  1.00  0.00     0.009 A 
ATOM     15  C   UNL     1      24.218  18.127  15.043  1.00  0.00     0.027 A 
ATOM     16  C   UNL     1      23.851  18.512  13.746  1.00  0.00     0.003 A 
ATOM     17  H   UNL     1      24.480  18.132  17.921  1.00  0.00     0.166 HD
ENDROOT
BRANCH   6  18
ATOM     18  C   UNL     1      19.673  23.297  12.052  1.00  0.00     0.230 C 
ATOM     19  O   UNL     1      19.582  24.099  11.117  1.00  0.00    -0.274 OA
ATOM     20  N   UNL     1      18.891  22.136  12.080  1.00  0.00    -0.343 N 
BRANCH  20  21
ATOM     21  C   UNL     1      17.953  21.932  10.972  1.00  0.00     0.116 C 
ATOM     22  C   UNL     1      18.370  20.820  10.021  1.00  0.00     0.027 C 
ENDBRANCH  20  21
BRANCH  20  23
ATOM     23  C   UNL     1      18.817  21.201  13.208  1.00  0.00     0.116 C 
ATOM     24  C   UNL     1      17.404  21.011  13.736  1.00  0.00     0.027 C 
ENDBRANCH  20  23
ENDBRANCH   6  18
BRANCH   1  25
ATOM     25  C   UNL     1      21.502  24.772  16.095  1.00  0.00     0.112 C 
BRANCH  25  26
ATOM     26  C   UNL     1      20.819  26.068  16.427  1.00  0.00    -0.019 C 
ATOM     27  C   UNL     1      21.104  26.827  17.494  1.00  0.00     0.005 C 
ENDBRANCH  25  26
ENDBRANCH   1  25
TORSDOF 5
ENDMDL
