MODEL 1
REMARK VINA RESULT:    -8.049      0.000      0.000
REMARK INTER + INTRA:         -10.433
REMARK INTER:                 -10.402
REMARK INTRA:                  -0.031
REMARK UNBOUND:                -0.031
REMARK SMILES C=CCN1C[C@H](C(=O)N(CC)CC)C=C2c3cccc4[nH]cc(c34)C[C@H]21
REMARK SMILES IDX 4 1 21 2 26 3 15 4 25 5 6 6 5 7 23 8 16 9 14 10 24 11 20 12
REMARK SMILES IDX 22 13 17 14 19 15 18 16 7 18 8 19 9 20 10 21 11 22 12 23
REMARK SMILES IDX 13 24 3 25 2 26 1 27
REMARK H PARENT 21 17
ROOT
ATOM      1  N   UNL     1      97.025 123.823 117.858  1.00  0.00    -0.291 NA
ATOM      2  N   UNL     1      92.887 121.023 121.248  1.00  0.00    -0.361 N 
ATOM      3  C   UNL     1      95.975 122.885 118.336  1.00  0.00     0.092 C 
ATOM      4  C   UNL     1      96.382 121.382 118.245  1.00  0.00    -0.026 C 
ATOM      5  C   UNL     1      95.282 123.346 119.672  1.00  0.00     0.061 C 
ATOM      6  C   UNL     1      98.288 121.944 116.706  1.00  0.00     0.116 C 
ATOM      7  C   UNL     1      97.646 123.341 116.617  1.00  0.00     0.103 C 
ATOM      8  C   UNL     1      94.377 122.291 120.200  1.00  0.00    -0.020 A 
ATOM      9  C   UNL     1      95.499 120.394 118.918  1.00  0.00    -0.011 A 
ATOM     10  C   UNL     1      97.449 120.983 117.520  1.00  0.00    -0.007 C 
ATOM     11  C   UNL     1      94.567 120.947 119.810  1.00  0.00     0.010 A 
ATOM     12  C   UNL     1      93.640 120.163 120.478  1.00  0.00     0.046 A 
ATOM     13  C   UNL     1      93.329 122.319 121.090  1.00  0.00     0.087 A 
ATOM     14  C   UNL     1      95.450 119.005 118.732  1.00  0.00     0.009 A 
ATOM     15  C   UNL     1      93.588 118.779 120.306  1.00  0.00     0.027 A 
ATOM     16  C   UNL     1      94.515 118.217 119.418  1.00  0.00     0.003 A 
ATOM     17  H   UNL     1      92.125 120.738 121.848  1.00  0.00     0.166 HD
ENDROOT
BRANCH   6  18
ATOM     18  C   UNL     1      98.494 121.412 115.273  1.00  0.00     0.230 C 
ATOM     19  O   UNL     1      98.011 120.330 114.926  1.00  0.00    -0.274 OA
ATOM     20  N   UNL     1      99.207 122.205 114.367  1.00  0.00    -0.343 N 
BRANCH  20  21
ATOM     21  C   UNL     1      99.370 121.684 113.006  1.00  0.00     0.116 C 
ATOM     22  C   UNL     1     100.550 120.734 112.857  1.00  0.00     0.027 C 
ENDBRANCH  20  21
BRANCH  20  23
ATOM     23  C   UNL     1      99.941 123.426 114.715  1.00  0.00     0.116 C 
ATOM     24  C   UNL     1     101.378 123.161 115.136  1.00  0.00     0.027 C 
ENDBRANCH  20  23
ENDBRANCH   6  18
BRANCH   1  25
ATOM     25  C   UNL     1      97.949 124.389 118.838  1.00  0.00     0.112 C 
BRANCH  25  26
ATOM     26  C   UNL     1      97.831 125.849 119.171  1.00  0.00    -0.019 C 
ATOM     27  C   UNL     1      97.630 126.334 120.405  1.00  0.00     0.005 C 
ENDBRANCH  25  26
ENDBRANCH   1  25
TORSDOF 5
ENDMDL
MODEL 2
REMARK VINA RESULT:    -7.648      1.590      6.880
REMARK INTER + INTRA:          -9.915
REMARK INTER:                  -9.098
REMARK INTRA:                  -0.817
REMARK UNBOUND:                -0.031
REMARK SMILES C=CCN1C[C@H](C(=O)N(CC)CC)C=C2c3cccc4[nH]cc(c34)C[C@H]21
REMARK SMILES IDX 4 1 21 2 26 3 15 4 25 5 6 6 5 7 23 8 16 9 14 10 24 11 20 12
REMARK SMILES IDX 22 13 17 14 19 15 18 16 7 18 8 19 9 20 10 21 11 22 12 23
REMARK SMILES IDX 13 24 3 25 2 26 1 27
REMARK H PARENT 21 17
ROOT
ATOM      1  N   UNL     1      97.934 124.004 117.806  1.00  0.00    -0.291 NA
ATOM      2  N   UNL     1     101.623 122.934 113.148  1.00  0.00    -0.361 N 
ATOM      3  C   UNL     1      98.838 123.339 116.831  1.00  0.00     0.092 C 
ATOM      4  C   UNL     1      98.220 122.076 116.156  1.00  0.00    -0.026 C 
ATOM      5  C   UNL     1      99.588 124.347 115.882  1.00  0.00     0.061 C 
ATOM      6  C   UNL     1      96.416 121.969 117.903  1.00  0.00     0.116 C 
ATOM      7  C   UNL     1      97.252 123.019 118.657  1.00  0.00     0.103 C 
ATOM      8  C   UNL     1     100.332 123.628 114.814  1.00  0.00    -0.020 A 
ATOM      9  C   UNL     1      98.951 121.493 115.001  1.00  0.00    -0.011 A 
ATOM     10  C   UNL     1      97.107 121.489 116.646  1.00  0.00    -0.007 C 
ATOM     11  C   UNL     1      99.951 122.315 114.459  1.00  0.00     0.010 A 
ATOM     12  C   UNL     1     100.756 121.896 113.413  1.00  0.00     0.046 A 
ATOM     13  C   UNL     1     101.372 123.994 113.992  1.00  0.00     0.087 A 
ATOM     14  C   UNL     1      98.800 120.221 114.431  1.00  0.00     0.009 A 
ATOM     15  C   UNL     1     100.609 120.635 112.833  1.00  0.00     0.027 A 
ATOM     16  C   UNL     1      99.612 119.806 113.366  1.00  0.00     0.003 A 
ATOM     17  H   UNL     1     102.335 122.918 112.432  1.00  0.00     0.166 HD
ENDROOT
BRANCH   6  18
ATOM     18  C   UNL     1      96.137 120.792 118.859  1.00  0.00     0.230 C 
ATOM     19  O   UNL     1      96.909 119.829 118.917  1.00  0.00    -0.274 OA
ATOM     20  N   UNL     1      95.011 120.860 119.687  1.00  0.00    -0.343 N 
BRANCH  20  21
ATOM     21  C   UNL     1      94.782 119.737 120.601  1.00  0.00     0.116 C 
ATOM     22  C   UNL     1      93.445 119.043 120.385  1.00  0.00     0.027 C 
ENDBRANCH  20  21
BRANCH  20  23
ATOM     23  C   UNL     1      93.961 121.879 119.593  1.00  0.00     0.116 C 
ATOM     24  C   UNL     1      93.763 122.656 120.886  1.00  0.00     0.027 C 
ENDBRANCH  20  23
ENDBRANCH   6  18
BRANCH   1  25
ATOM     25  C   UNL     1      97.099 125.108 117.339  1.00  0.00     0.112 C 
BRANCH  25  26
ATOM     26  C   UNL     1      97.359 126.482 117.890  1.00  0.00    -0.019 C 
ATOM     27  C   UNL     1      98.511 126.870 118.454  1.00  0.00     0.005 C 
ENDBRANCH  25  26
ENDBRANCH   1  25
TORSDOF 5
ENDMDL
MODEL 3
REMARK VINA RESULT:    -7.572      2.763      7.391
REMARK INTER + INTRA:          -9.816
REMARK INTER:                  -8.983
REMARK INTRA:                  -0.833
REMARK UNBOUND:                -0.031
REMARK SMILES C=CCN1C[C@H](C(=O)N(CC)CC)C=C2c3cccc4[nH]cc(c34)C[C@H]21
REMARK SMILES IDX 4 1 21 2 26 3 15 4 25 5 6 6 5 7 23 8 16 9 14 10 24 11 20 12
REMARK SMILES IDX 22 13 17 14 19 15 18 16 7 18 8 19 9 20 10 21 11 22 12 23
REMARK SMILES IDX 13 24 3 25 2 26 1 27
REMARK H PARENT 21 17
ROOT
ATOM      1  N   UNL     1      97.993 126.564 119.427  1.00  0.00    -0.291 NA
ATOM      2  N   UNL     1     101.835 127.162 114.809  1.00  0.00    -0.361 N 
ATOM      3  C   UNL     1      99.021 126.294 118.388  1.00  0.00     0.092 C 
ATOM      4  C   UNL     1      98.691 125.072 117.476  1.00  0.00    -0.026 C 
ATOM      5  C   UNL     1      99.537 127.593 117.663  1.00  0.00     0.061 C 
ATOM      6  C   UNL     1      96.949 124.271 119.101  1.00  0.00     0.116 C 
ATOM      7  C   UNL     1      97.537 125.320 120.063  1.00  0.00     0.103 C 
ATOM      8  C   UNL     1     100.421 127.253 116.516  1.00  0.00    -0.020 A 
ATOM      9  C   UNL     1      99.533 124.876 116.267  1.00  0.00    -0.011 A 
ATOM     10  C   UNL     1      97.731 124.183 117.808  1.00  0.00    -0.007 C 
ATOM     11  C   UNL     1     100.333 125.976 115.921  1.00  0.00     0.010 A 
ATOM     12  C   UNL     1     101.212 125.933 114.850  1.00  0.00     0.046 A 
ATOM     13  C   UNL     1     101.359 127.974 115.815  1.00  0.00     0.087 A 
ATOM     14  C   UNL     1      99.661 123.726 115.476  1.00  0.00     0.009 A 
ATOM     15  C   UNL     1     101.341 124.796 114.051  1.00  0.00     0.027 A 
ATOM     16  C   UNL     1     100.545 123.692 114.388  1.00  0.00     0.003 A 
ATOM     17  H   UNL     1     102.535 127.427 114.130  1.00  0.00     0.166 HD
ENDROOT
BRANCH   6  18
ATOM     18  C   UNL     1      96.930 122.908 119.823  1.00  0.00     0.230 C 
ATOM     19  O   UNL     1      97.932 122.490 120.411  1.00  0.00    -0.274 OA
ATOM     20  N   UNL     1      95.737 122.176 119.828  1.00  0.00    -0.343 N 
BRANCH  20  21
ATOM     21  C   UNL     1      95.740 120.893 120.538  1.00  0.00     0.116 C 
ATOM     22  C   UNL     1      95.613 119.689 119.616  1.00  0.00     0.027 C 
ENDBRANCH  20  21
BRANCH  20  23
ATOM     23  C   UNL     1      94.544 122.509 119.043  1.00  0.00     0.116 C 
ATOM     24  C   UNL     1      93.263 122.488 119.862  1.00  0.00     0.027 C 
ENDBRANCH  20  23
ENDBRANCH   6  18
BRANCH   1  25
ATOM     25  C   UNL     1      96.940 127.532 119.129  1.00  0.00     0.112 C 
BRANCH  25  26
ATOM     26  C   UNL     1      96.786 128.721 120.034  1.00  0.00    -0.019 C 
ATOM     27  C   UNL     1      97.545 129.825 119.977  1.00  0.00     0.005 C 
ENDBRANCH  25  26
ENDBRANCH   1  25
TORSDOF 5
ENDMDL
MODEL 4
REMARK VINA RESULT:    -7.535      2.135      7.171
REMARK INTER + INTRA:          -9.769
REMARK INTER:                  -8.948
REMARK INTRA:                  -0.821
REMARK UNBOUND:                -0.031
REMARK SMILES C=CCN1C[C@H](C(=O)N(CC)CC)C=C2c3cccc4[nH]cc(c34)C[C@H]21
REMARK SMILES IDX 4 1 21 2 26 3 15 4 25 5 6 6 5 7 23 8 16 9 14 10 24 11 20 12
REMARK SMILES IDX 22 13 17 14 19 15 18 16 7 18 8 19 9 20 10 21 11 22 12 23
REMARK SMILES IDX 13 24 3 25 2 26 1 27
REMARK H PARENT 21 17
ROOT
ATOM      1  N   UNL     1      97.170 122.616 117.031  1.00  0.00    -0.291 NA
ATOM      2  N   UNL     1      99.318 128.166 118.051  1.00  0.00    -0.361 N 
ATOM      3  C   UNL     1      97.305 124.032 117.465  1.00  0.00     0.092 C 
ATOM      4  C   UNL     1      97.038 124.255 118.986  1.00  0.00    -0.026 C 
ATOM      5  C   UNL     1      98.565 124.756 116.859  1.00  0.00     0.061 C 
ATOM      6  C   UNL     1      95.952 121.996 119.172  1.00  0.00     0.116 C 
ATOM      7  C   UNL     1      95.987 121.985 117.633  1.00  0.00     0.103 C 
ATOM      8  C   UNL     1      98.755 126.101 117.464  1.00  0.00    -0.020 A 
ATOM      9  C   UNL     1      97.384 125.585 119.551  1.00  0.00    -0.011 A 
ATOM     10  C   UNL     1      96.447 123.308 119.743  1.00  0.00    -0.007 C 
ATOM     11  C   UNL     1      98.187 126.387 118.725  1.00  0.00     0.010 A 
ATOM     12  C   UNL     1      98.553 127.673 119.087  1.00  0.00     0.046 A 
ATOM     13  C   UNL     1      99.450 127.217 117.061  1.00  0.00     0.087 A 
ATOM     14  C   UNL     1      96.968 126.146 120.766  1.00  0.00     0.009 A 
ATOM     15  C   UNL     1      98.151 128.238 120.298  1.00  0.00     0.027 A 
ATOM     16  C   UNL     1      97.350 127.445 121.131  1.00  0.00     0.003 A 
ATOM     17  H   UNL     1      99.728 129.089 118.030  1.00  0.00     0.166 HD
ENDROOT
BRANCH   6  18
ATOM     18  C   UNL     1      94.506 121.712 119.627  1.00  0.00     0.230 C 
ATOM     19  O   UNL     1      93.662 122.613 119.650  1.00  0.00    -0.274 OA
ATOM     20  N   UNL     1      94.165 120.400 119.974  1.00  0.00    -0.343 N 
BRANCH  20  21
ATOM     21  C   UNL     1      92.778 120.154 120.383  1.00  0.00     0.116 C 
ATOM     22  C   UNL     1      92.585 120.134 121.892  1.00  0.00     0.027 C 
ENDBRANCH  20  21
BRANCH  20  23
ATOM     23  C   UNL     1      95.118 119.295 120.121  1.00  0.00     0.116 C 
ATOM     24  C   UNL     1      95.247 118.445 118.866  1.00  0.00     0.027 C 
ENDBRANCH  20  23
ENDBRANCH   6  18
BRANCH   1  25
ATOM     25  C   UNL     1      98.369 121.783 116.993  1.00  0.00     0.112 C 
BRANCH  25  26
ATOM     26  C   UNL     1      98.840 121.269 115.662  1.00  0.00    -0.019 C 
ATOM     27  C   UNL     1      99.807 121.835 114.927  1.00  0.00     0.005 C 
ENDBRANCH  25  26
ENDBRANCH   1  25
TORSDOF 5
ENDMDL
MODEL 5
REMARK VINA RESULT:    -7.525      2.706      7.411
REMARK INTER + INTRA:          -9.756
REMARK INTER:                  -9.121
REMARK INTRA:                  -0.634
REMARK UNBOUND:                -0.031
REMARK SMILES C=CCN1C[C@H](C(=O)N(CC)CC)C=C2c3cccc4[nH]cc(c34)C[C@H]21
REMARK SMILES IDX 4 1 21 2 26 3 15 4 25 5 6 6 5 7 23 8 16 9 14 10 24 11 20 12
REMARK SMILES IDX 22 13 17 14 19 15 18 16 7 18 8 19 9 20 10 21 11 22 12 23
REMARK SMILES IDX 13 24 3 25 2 26 1 27
REMARK H PARENT 21 17
ROOT
ATOM      1  N   UNL     1      98.460 126.864 118.654  1.00  0.00    -0.291 NA
ATOM      2  N   UNL     1     102.284 126.222 114.026  1.00  0.00    -0.361 N 
ATOM      3  C   UNL     1      99.441 126.306 117.686  1.00  0.00     0.092 C 
ATOM      4  C   UNL     1      98.976 124.981 117.007  1.00  0.00    -0.026 C 
ATOM      5  C   UNL     1     100.079 127.394 116.743  1.00  0.00     0.061 C 
ATOM      6  C   UNL     1      97.182 124.670 118.739  1.00  0.00     0.116 C 
ATOM      7  C   UNL     1      97.887 125.808 119.500  1.00  0.00     0.103 C 
ATOM      8  C   UNL     1     100.908 126.764 115.681  1.00  0.00    -0.020 A 
ATOM      9  C   UNL     1      99.778 124.486 115.858  1.00  0.00    -0.011 A 
ATOM     10  C   UNL     1      97.934 124.271 117.488  1.00  0.00    -0.007 C 
ATOM     11  C   UNL     1     100.683 125.416 115.324  1.00  0.00     0.010 A 
ATOM     12  C   UNL     1     101.538 125.092 114.284  1.00  0.00     0.046 A 
ATOM     13  C   UNL     1     101.907 127.246 114.867  1.00  0.00     0.087 A 
ATOM     14  C   UNL     1      99.778 123.205 115.288  1.00  0.00     0.009 A 
ATOM     15  C   UNL     1     101.540 123.822 113.704  1.00  0.00     0.027 A 
ATOM     16  C   UNL     1     100.640 122.885 114.229  1.00  0.00     0.003 A 
ATOM     17  H   UNL     1     102.999 126.287 113.315  1.00  0.00     0.166 HD
ENDROOT
BRANCH   6  18
ATOM     18  C   UNL     1      97.032 123.468 119.694  1.00  0.00     0.230 C 
ATOM     19  O   UNL     1      97.706 123.392 120.726  1.00  0.00    -0.274 OA
ATOM     20  N   UNL     1      96.084 122.487 119.382  1.00  0.00    -0.343 N 
BRANCH  20  21
ATOM     21  C   UNL     1      95.947 121.366 120.317  1.00  0.00     0.116 C 
ATOM     22  C   UNL     1      94.661 121.407 121.130  1.00  0.00     0.027 C 
ENDBRANCH  20  21
BRANCH  20  23
ATOM     23  C   UNL     1      95.342 122.406 118.119  1.00  0.00     0.116 C 
ATOM     24  C   UNL     1      95.545 121.088 117.389  1.00  0.00     0.027 C 
ENDBRANCH  20  23
ENDBRANCH   6  18
BRANCH   1  25
ATOM     25  C   UNL     1      97.509 127.866 118.180  1.00  0.00     0.112 C 
BRANCH  25  26
ATOM     26  C   UNL     1      96.870 128.778 119.188  1.00  0.00    -0.019 C 
ATOM     27  C   UNL     1      97.532 129.684 119.921  1.00  0.00     0.005 C 
ENDBRANCH  25  26
ENDBRANCH   1  25
TORSDOF 5
ENDMDL
MODEL 6
REMARK VINA RESULT:    -7.417      1.829      5.257
REMARK INTER + INTRA:          -9.617
REMARK INTER:                  -9.261
REMARK INTRA:                  -0.356
REMARK UNBOUND:                -0.031
REMARK SMILES C=CCN1C[C@H](C(=O)N(CC)CC)C=C2c3cccc4[nH]cc(c34)C[C@H]21
REMARK SMILES IDX 4 1 21 2 26 3 15 4 25 5 6 6 5 7 23 8 16 9 14 10 24 11 20 12
REMARK SMILES IDX 22 13 17 14 19 15 18 16 7 18 8 19 9 20 10 21 11 22 12 23
REMARK SMILES IDX 13 24 3 25 2 26 1 27
REMARK H PARENT 21 17
ROOT
ATOM      1  N   UNL     1      96.718 122.222 118.618  1.00  0.00    -0.291 NA
ATOM      2  N   UNL     1      97.658 127.784 120.769  1.00  0.00    -0.361 N 
ATOM      3  C   UNL     1      97.340 123.527 118.964  1.00  0.00     0.092 C 
ATOM      4  C   UNL     1      97.898 124.307 117.733  1.00  0.00    -0.026 C 
ATOM      5  C   UNL     1      96.507 124.362 120.007  1.00  0.00     0.061 C 
ATOM      6  C   UNL     1      97.786 122.237 116.313  1.00  0.00     0.116 C 
ATOM      7  C   UNL     1      97.528 121.489 117.634  1.00  0.00     0.103 C 
ATOM      8  C   UNL     1      97.074 125.727 120.178  1.00  0.00    -0.020 A 
ATOM      9  C   UNL     1      98.317 125.716 117.951  1.00  0.00    -0.011 A 
ATOM     10  C   UNL     1      98.067 123.706 116.536  1.00  0.00    -0.007 C 
ATOM     11  C   UNL     1      97.885 126.279 119.162  1.00  0.00     0.010 A 
ATOM     12  C   UNL     1      98.235 127.567 119.536  1.00  0.00     0.046 A 
ATOM     13  C   UNL     1      96.947 126.674 121.167  1.00  0.00     0.087 A 
ATOM     14  C   UNL     1      99.121 126.519 117.131  1.00  0.00     0.009 A 
ATOM     15  C   UNL     1      99.029 128.378 118.723  1.00  0.00     0.027 A 
ATOM     16  C   UNL     1      99.464 127.825 117.511  1.00  0.00     0.003 A 
ATOM     17  H   UNL     1      97.742 128.641 121.298  1.00  0.00     0.166 HD
ENDROOT
BRANCH   6  18
ATOM     18  C   UNL     1      98.969 121.556 115.594  1.00  0.00     0.230 C 
ATOM     19  O   UNL     1      99.582 120.626 116.126  1.00  0.00    -0.274 OA
ATOM     20  N   UNL     1      99.303 121.992 114.306  1.00  0.00    -0.343 N 
BRANCH  20  21
ATOM     21  C   UNL     1     100.418 121.314 113.637  1.00  0.00     0.116 C 
ATOM     22  C   UNL     1      99.974 120.335 112.561  1.00  0.00     0.027 C 
ENDBRANCH  20  21
BRANCH  20  23
ATOM     23  C   UNL     1      98.740 123.175 113.648  1.00  0.00     0.116 C 
ATOM     24  C   UNL     1      99.801 124.128 113.118  1.00  0.00     0.027 C 
ENDBRANCH  20  23
ENDBRANCH   6  18
BRANCH   1  25
ATOM     25  C   UNL     1      95.275 122.177 118.393  1.00  0.00     0.112 C 
BRANCH  25  26
ATOM     26  C   UNL     1      94.410 121.525 119.434  1.00  0.00    -0.019 C 
ATOM     27  C   UNL     1      93.468 122.159 120.147  1.00  0.00     0.005 C 
ENDBRANCH  25  26
ENDBRANCH   1  25
TORSDOF 5
ENDMDL
MODEL 7
REMARK VINA RESULT:    -7.311      2.734      7.380
REMARK INTER + INTRA:          -9.480
REMARK INTER:                  -8.861
REMARK INTRA:                  -0.619
REMARK UNBOUND:                -0.031
REMARK SMILES C=CCN1C[C@H](C(=O)N(CC)CC)C=C2c3cccc4[nH]cc(c34)C[C@H]21
REMARK SMILES IDX 4 1 21 2 26 3 15 4 25 5 6 6 5 7 23 8 16 9 14 10 24 11 20 12
REMARK SMILES IDX 22 13 17 14 19 15 18 16 7 18 8 19 9 20 10 21 11 22 12 23
REMARK SMILES IDX 13 24 3 25 2 26 1 27
REMARK H PARENT 21 17
ROOT
ATOM      1  N   UNL     1      97.294 121.988 117.380  1.00  0.00    -0.291 NA
ATOM      2  N   UNL     1     100.291 120.567 112.335  1.00  0.00    -0.361 N 
ATOM      3  C   UNL     1      97.911 122.043 116.028  1.00  0.00     0.092 C 
ATOM      4  C   UNL     1      98.879 123.249 115.824  1.00  0.00    -0.026 C 
ATOM      5  C   UNL     1      98.413 120.643 115.510  1.00  0.00     0.061 C 
ATOM      6  C   UNL     1      97.959 124.391 117.865  1.00  0.00     0.116 C 
ATOM      7  C   UNL     1      96.855 123.320 117.819  1.00  0.00     0.103 C 
ATOM      8  C   UNL     1      99.182 120.783 114.244  1.00  0.00    -0.020 A 
ATOM      9  C   UNL     1      99.719 123.250 114.598  1.00  0.00    -0.011 A 
ATOM     10  C   UNL     1      98.899 124.290 116.684  1.00  0.00    -0.007 C 
ATOM     11  C   UNL     1      99.768 122.025 113.916  1.00  0.00     0.010 A 
ATOM     12  C   UNL     1     100.467 121.876 112.728  1.00  0.00     0.046 A 
ATOM     13  C   UNL     1      99.514 119.892 113.251  1.00  0.00     0.087 A 
ATOM     14  C   UNL     1     100.415 124.323 114.023  1.00  0.00     0.009 A 
ATOM     15  C   UNL     1     101.169 122.935 112.151  1.00  0.00     0.027 A 
ATOM     16  C   UNL     1     101.127 124.163 112.826  1.00  0.00     0.003 A 
ATOM     17  H   UNL     1     100.685 120.162 111.497  1.00  0.00     0.166 HD
ENDROOT
BRANCH   6  18
ATOM     18  C   UNL     1      97.287 125.779 117.911  1.00  0.00     0.230 C 
ATOM     19  O   UNL     1      96.603 126.182 116.965  1.00  0.00    -0.274 OA
ATOM     20  N   UNL     1      97.439 126.552 119.068  1.00  0.00    -0.343 N 
BRANCH  20  21
ATOM     21  C   UNL     1      96.773 127.858 119.094  1.00  0.00     0.116 C 
ATOM     22  C   UNL     1      97.571 128.960 118.412  1.00  0.00     0.027 C 
ENDBRANCH  20  21
BRANCH  20  23
ATOM     23  C   UNL     1      98.342 126.234 120.178  1.00  0.00     0.116 C 
ATOM     24  C   UNL     1      98.208 127.190 121.353  1.00  0.00     0.027 C 
ENDBRANCH  20  23
ENDBRANCH   6  18
BRANCH   1  25
ATOM     25  C   UNL     1      97.942 121.175 118.407  1.00  0.00     0.112 C 
BRANCH  25  26
ATOM     26  C   UNL     1      97.104 120.660 119.542  1.00  0.00    -0.019 C 
ATOM     27  C   UNL     1      97.195 121.089 120.810  1.00  0.00     0.005 C 
ENDBRANCH  25  26
ENDBRANCH   1  25
TORSDOF 5
ENDMDL
MODEL 8
REMARK VINA RESULT:    -7.174      3.650      8.873
REMARK INTER + INTRA:          -9.303
REMARK INTER:                  -8.573
REMARK INTRA:                  -0.729
REMARK UNBOUND:                -0.031
REMARK SMILES C=CCN1C[C@H](C(=O)N(CC)CC)C=C2c3cccc4[nH]cc(c34)C[C@H]21
REMARK SMILES IDX 4 1 21 2 26 3 15 4 25 5 6 6 5 7 23 8 16 9 14 10 24 11 20 12
REMARK SMILES IDX 22 13 17 14 19 15 18 16 7 18 8 19 9 20 10 21 11 22 12 23
REMARK SMILES IDX 13 24 3 25 2 26 1 27
REMARK H PARENT 21 17
ROOT
ATOM      1  N   UNL     1      97.332 125.292 118.486  1.00  0.00    -0.291 NA
ATOM      2  N   UNL     1     101.335 124.391 114.057  1.00  0.00    -0.361 N 
ATOM      3  C   UNL     1      98.288 125.505 117.368  1.00  0.00     0.092 C 
ATOM      4  C   UNL     1      99.435 126.509 117.699  1.00  0.00    -0.026 C 
ATOM      5  C   UNL     1      98.708 124.174 116.639  1.00  0.00     0.061 C 
ATOM      6  C   UNL     1      98.174 127.358 119.701  1.00  0.00     0.116 C 
ATOM      7  C   UNL     1      96.982 126.562 119.137  1.00  0.00     0.103 C 
ATOM      8  C   UNL     1      99.798 124.419 115.657  1.00  0.00    -0.020 A 
ATOM      9  C   UNL     1     100.563 126.599 116.736  1.00  0.00    -0.011 A 
ATOM     10  C   UNL     1      99.371 127.320 118.777  1.00  0.00    -0.007 C 
ATOM     11  C   UNL     1     100.620 125.559 115.795  1.00  0.00     0.010 A 
ATOM     12  C   UNL     1     101.581 125.526 114.798  1.00  0.00     0.046 A 
ATOM     13  C   UNL     1     100.255 123.708 114.572  1.00  0.00     0.087 A 
ATOM     14  C   UNL     1     101.530 127.607 116.624  1.00  0.00     0.009 A 
ATOM     15  C   UNL     1     102.554 126.521 114.683  1.00  0.00     0.027 A 
ATOM     16  C   UNL     1     102.507 127.563 115.619  1.00  0.00     0.003 A 
ATOM     17  H   UNL     1     101.876 124.101 113.255  1.00  0.00     0.166 HD
ENDROOT
BRANCH   6  18
ATOM     18  C   UNL     1      97.716 128.810 119.945  1.00  0.00     0.230 C 
ATOM     19  O   UNL     1      97.270 129.496 119.019  1.00  0.00    -0.274 OA
ATOM     20  N   UNL     1      97.780 129.317 121.247  1.00  0.00    -0.343 N 
BRANCH  20  21
ATOM     21  C   UNL     1      97.319 130.694 121.455  1.00  0.00     0.116 C 
ATOM     22  C   UNL     1      98.390 131.739 121.181  1.00  0.00     0.027 C 
ENDBRANCH  20  21
BRANCH  20  23
ATOM     23  C   UNL     1      98.423 128.643 122.380  1.00  0.00     0.116 C 
ATOM     24  C   UNL     1      98.067 129.259 123.724  1.00  0.00     0.027 C 
ENDBRANCH  20  23
ENDBRANCH   6  18
BRANCH   1  25
ATOM     25  C   UNL     1      97.560 124.169 119.392  1.00  0.00     0.112 C 
BRANCH  25  26
ATOM     26  C   UNL     1      96.484 123.130 119.528  1.00  0.00    -0.019 C 
ATOM     27  C   UNL     1      95.861 122.541 118.497  1.00  0.00     0.005 C 
ENDBRANCH  25  26
ENDBRANCH   1  25
TORSDOF 5
ENDMDL
MODEL 9
REMARK VINA RESULT:    -6.862      2.596      5.760
REMARK INTER + INTRA:          -8.900
REMARK INTER:                  -9.106
REMARK INTRA:                   0.207
REMARK UNBOUND:                -0.031
REMARK SMILES C=CCN1C[C@H](C(=O)N(CC)CC)C=C2c3cccc4[nH]cc(c34)C[C@H]21
REMARK SMILES IDX 4 1 21 2 26 3 15 4 25 5 6 6 5 7 23 8 16 9 14 10 24 11 20 12
REMARK SMILES IDX 22 13 17 14 19 15 18 16 7 18 8 19 9 20 10 21 11 22 12 23
REMARK SMILES IDX 13 24 3 25 2 26 1 27
REMARK H PARENT 21 17
ROOT
ATOM      1  N   UNL     1      99.916 121.695 114.187  1.00  0.00    -0.291 NA
ATOM      2  N   UNL     1      95.745 121.084 118.510  1.00  0.00    -0.361 N 
ATOM      3  C   UNL     1      99.184 121.772 115.479  1.00  0.00     0.092 C 
ATOM      4  C   UNL     1      98.989 123.226 116.009  1.00  0.00    -0.026 C 
ATOM      5  C   UNL     1      97.928 120.825 115.546  1.00  0.00     0.061 C 
ATOM      6  C   UNL     1     100.737 124.087 114.422  1.00  0.00     0.116 C 
ATOM      7  C   UNL     1     101.070 122.605 114.173  1.00  0.00     0.103 C 
ATOM      8  C   UNL     1      97.132 121.074 116.777  1.00  0.00    -0.020 A 
ATOM      9  C   UNL     1      98.068 123.415 117.160  1.00  0.00    -0.011 A 
ATOM     10  C   UNL     1      99.686 124.262 115.497  1.00  0.00    -0.007 C 
ATOM     11  C   UNL     1      97.248 122.313 117.446  1.00  0.00     0.010 A 
ATOM     12  C   UNL     1      96.371 122.312 118.519  1.00  0.00     0.046 A 
ATOM     13  C   UNL     1      96.198 120.324 117.453  1.00  0.00     0.087 A 
ATOM     14  C   UNL     1      97.958 124.523 118.011  1.00  0.00     0.009 A 
ATOM     15  C   UNL     1      96.248 123.414 119.367  1.00  0.00     0.027 A 
ATOM     16  C   UNL     1      97.061 124.520 119.089  1.00  0.00     0.003 A 
ATOM     17  H   UNL     1      95.049 120.790 119.180  1.00  0.00     0.166 HD
ENDROOT
BRANCH   6  18
ATOM     18  C   UNL     1     102.039 124.820 114.805  1.00  0.00     0.230 C 
ATOM     19  O   UNL     1     103.073 124.187 115.046  1.00  0.00    -0.274 OA
ATOM     20  N   UNL     1     102.031 126.219 114.834  1.00  0.00    -0.343 N 
BRANCH  20  21
ATOM     21  C   UNL     1     103.287 126.890 115.182  1.00  0.00     0.116 C 
ATOM     22  C   UNL     1     103.294 127.475 116.586  1.00  0.00     0.027 C 
ENDBRANCH  20  21
BRANCH  20  23
ATOM     23  C   UNL     1     100.832 127.054 114.711  1.00  0.00     0.116 C 
ATOM     24  C   UNL     1     100.481 127.792 115.993  1.00  0.00     0.027 C 
ENDBRANCH  20  23
ENDBRANCH   6  18
BRANCH   1  25
ATOM     25  C   UNL     1      99.140 121.655 112.950  1.00  0.00     0.112 C 
BRANCH  25  26
ATOM     26  C   UNL     1      99.321 120.480 112.031  1.00  0.00    -0.019 C 
ATOM     27  C   UNL     1     100.464 120.179 111.398  1.00  0.00     0.005 C 
ENDBRANCH  25  26
ENDBRANCH   1  25
TORSDOF 5
ENDMDL
MODEL 10
REMARK VINA RESULT:    -6.792      1.943      3.390
REMARK INTER + INTRA:          -8.808
REMARK INTER:                  -8.530
REMARK INTRA:                  -0.278
REMARK UNBOUND:                -0.031
REMARK SMILES C=CCN1C[C@H](C(=O)N(CC)CC)C=C2c3cccc4[nH]cc(c34)C[C@H]21
REMARK SMILES IDX 4 1 21 2 26 3 15 4 25 5 6 6 5 7 23 8 16 9 14 10 24 11 20 12
REMARK SMILES IDX 22 13 17 14 19 15 18 16 7 18 8 19 9 20 10 21 11 22 12 23
REMARK SMILES IDX 13 24 3 25 2 26 1 27
REMARK H PARENT 21 17
ROOT
ATOM      1  N   UNL     1      98.990 123.975 115.273  1.00  0.00    -0.291 NA
ATOM      2  N   UNL     1      95.889 123.273 120.405  1.00  0.00    -0.361 N 
ATOM      3  C   UNL     1      98.059 123.465 116.314  1.00  0.00     0.092 C 
ATOM      4  C   UNL     1      98.267 121.960 116.666  1.00  0.00    -0.026 C 
ATOM      5  C   UNL     1      97.875 124.452 117.528  1.00  0.00     0.061 C 
ATOM      6  C   UNL     1      99.632 121.616 114.584  1.00  0.00     0.116 C 
ATOM      7  C   UNL     1      99.135 123.013 114.171  1.00  0.00     0.103 C 
ATOM      8  C   UNL     1      97.086 123.820 118.619  1.00  0.00    -0.020 A 
ATOM      9  C   UNL     1      97.552 121.432 117.856  1.00  0.00    -0.011 A 
ATOM     10  C   UNL     1      99.005 121.148 115.879  1.00  0.00    -0.007 C 
ATOM     11  C   UNL     1      97.010 122.412 118.702  1.00  0.00     0.010 A 
ATOM     12  C   UNL     1      96.270 122.082 119.826  1.00  0.00     0.046 A 
ATOM     13  C   UNL     1      96.382 124.336 119.682  1.00  0.00     0.087 A 
ATOM     14  C   UNL     1      97.311 120.095 118.202  1.00  0.00     0.009 A 
ATOM     15  C   UNL     1      96.032 120.754 120.184  1.00  0.00     0.027 A 
ATOM     16  C   UNL     1      96.570 119.767 119.346  1.00  0.00     0.003 A 
ATOM     17  H   UNL     1      95.333 123.350 121.245  1.00  0.00     0.166 HD
ENDROOT
BRANCH   6  18
ATOM     18  C   UNL     1      99.320 120.631 113.438  1.00  0.00     0.230 C 
ATOM     19  O   UNL     1      98.282 119.962 113.445  1.00  0.00    -0.274 OA
ATOM     20  N   UNL     1     100.222 120.546 112.371  1.00  0.00    -0.343 N 
BRANCH  20  21
ATOM     21  C   UNL     1      99.890 119.618 111.286  1.00  0.00     0.116 C 
ATOM     22  C   UNL     1     100.384 120.078 109.922  1.00  0.00     0.027 C 
ENDBRANCH  20  21
BRANCH  20  23
ATOM     23  C   UNL     1     101.543 121.182 112.335  1.00  0.00     0.116 C 
ATOM     24  C   UNL     1     101.488 122.656 111.964  1.00  0.00     0.027 C 
ENDBRANCH  20  23
ENDBRANCH   6  18
BRANCH   1  25
ATOM     25  C   UNL     1     100.227 124.621 115.703  1.00  0.00     0.112 C 
BRANCH  25  26
ATOM     26  C   UNL     1     101.111 125.239 114.657  1.00  0.00    -0.019 C 
ATOM     27  C   UNL     1     101.786 126.387 114.812  1.00  0.00     0.005 C 
ENDBRANCH  25  26
ENDBRANCH   1  25
TORSDOF 5
ENDMDL
MODEL 11
REMARK VINA RESULT:    -6.176      2.390      5.530
REMARK INTER + INTRA:          -8.012
REMARK INTER:                  -7.192
REMARK INTRA:                  -0.820
REMARK UNBOUND:                -0.031
REMARK SMILES C=CCN1C[C@H](C(=O)N(CC)CC)C=C2c3cccc4[nH]cc(c34)C[C@H]21
REMARK SMILES IDX 4 1 21 2 26 3 15 4 25 5 6 6 5 7 23 8 16 9 14 10 24 11 20 12
REMARK SMILES IDX 22 13 17 14 19 15 18 16 7 18 8 19 9 20 10 21 11 22 12 23
REMARK SMILES IDX 13 24 3 25 2 26 1 27
REMARK H PARENT 21 17
ROOT
ATOM      1  N   UNL     1      97.957 123.286 117.777  1.00  0.00    -0.291 NA
ATOM      2  N   UNL     1      94.551 118.631 119.560  1.00  0.00    -0.361 N 
ATOM      3  C   UNL     1      97.188 122.321 118.607  1.00  0.00     0.092 C 
ATOM      4  C   UNL     1      96.095 122.987 119.499  1.00  0.00    -0.026 C 
ATOM      5  C   UNL     1      96.762 121.022 117.826  1.00  0.00     0.061 C 
ATOM      6  C   UNL     1      97.132 125.251 119.159  1.00  0.00     0.116 C 
ATOM      7  C   UNL     1      98.318 124.483 118.548  1.00  0.00     0.103 C 
ATOM      8  C   UNL     1      95.846 120.181 118.641  1.00  0.00    -0.020 A 
ATOM      9  C   UNL     1      95.125 122.087 120.175  1.00  0.00    -0.011 A 
ATOM     10  C   UNL     1      96.076 124.319 119.714  1.00  0.00    -0.007 C 
ATOM     11  C   UNL     1      95.112 120.767 119.697  1.00  0.00     0.010 A 
ATOM     12  C   UNL     1      94.300 119.794 120.256  1.00  0.00     0.046 A 
ATOM     13  C   UNL     1      95.486 118.855 118.574  1.00  0.00     0.087 A 
ATOM     14  C   UNL     1      94.272 122.379 121.248  1.00  0.00     0.009 A 
ATOM     15  C   UNL     1      93.441 120.076 121.320  1.00  0.00     0.027 A 
ATOM     16  C   UNL     1      93.445 121.392 121.804  1.00  0.00     0.003 A 
ATOM     17  H   UNL     1      94.104 117.744 119.746  1.00  0.00     0.166 HD
ENDROOT
BRANCH   6  18
ATOM     18  C   UNL     1      97.673 126.184 120.261  1.00  0.00     0.230 C 
ATOM     19  O   UNL     1      98.377 125.742 121.174  1.00  0.00    -0.274 OA
ATOM     20  N   UNL     1      97.379 127.550 120.178  1.00  0.00    -0.343 N 
BRANCH  20  21
ATOM     21  C   UNL     1      97.923 128.418 121.228  1.00  0.00     0.116 C 
ATOM     22  C   UNL     1      97.105 129.680 121.455  1.00  0.00     0.027 C 
ENDBRANCH  20  21
BRANCH  20  23
ATOM     23  C   UNL     1      96.439 128.151 119.226  1.00  0.00     0.116 C 
ATOM     24  C   UNL     1      97.097 128.582 117.925  1.00  0.00     0.027 C 
ENDBRANCH  20  23
ENDBRANCH   6  18
BRANCH   1  25
ATOM     25  C   UNL     1      97.509 123.538 116.409  1.00  0.00     0.112 C 
BRANCH  25  26
ATOM     26  C   UNL     1      98.489 123.338 115.288  1.00  0.00    -0.019 C 
ATOM     27  C   UNL     1      99.430 122.383 115.262  1.00  0.00     0.005 C 
ENDBRANCH  25  26
ENDBRANCH   1  25
TORSDOF 5
ENDMDL
MODEL 12
REMARK VINA RESULT:    -6.172      2.527      7.262
REMARK INTER + INTRA:          -8.007
REMARK INTER:                  -7.497
REMARK INTRA:                  -0.510
REMARK UNBOUND:                -0.031
REMARK SMILES C=CCN1C[C@H](C(=O)N(CC)CC)C=C2c3cccc4[nH]cc(c34)C[C@H]21
REMARK SMILES IDX 4 1 21 2 26 3 15 4 25 5 6 6 5 7 23 8 16 9 14 10 24 11 20 12
REMARK SMILES IDX 22 13 17 14 19 15 18 16 7 18 8 19 9 20 10 21 11 22 12 23
REMARK SMILES IDX 13 24 3 25 2 26 1 27
REMARK H PARENT 21 17
ROOT
ATOM      1  N   UNL     1      96.786 122.348 117.313  1.00  0.00    -0.291 NA
ATOM      2  N   UNL     1      99.375 127.768 117.925  1.00  0.00    -0.361 N 
ATOM      3  C   UNL     1      97.044 123.770 117.663  1.00  0.00     0.092 C 
ATOM      4  C   UNL     1      96.874 124.089 119.180  1.00  0.00    -0.026 C 
ATOM      5  C   UNL     1      98.319 124.367 116.958  1.00  0.00     0.061 C 
ATOM      6  C   UNL     1      95.640 121.930 119.542  1.00  0.00     0.116 C 
ATOM      7  C   UNL     1      95.594 121.838 118.006  1.00  0.00     0.103 C 
ATOM      8  C   UNL     1      98.636 125.723 117.479  1.00  0.00    -0.020 A 
ATOM      9  C   UNL     1      97.342 125.417 119.655  1.00  0.00    -0.011 A 
ATOM     10  C   UNL     1      96.256 123.228 120.016  1.00  0.00    -0.007 C 
ATOM     11  C   UNL     1      98.157 126.114 118.749  1.00  0.00     0.010 A 
ATOM     12  C   UNL     1      98.632 127.387 119.022  1.00  0.00     0.046 A 
ATOM     13  C   UNL     1      99.388 126.763 116.983  1.00  0.00     0.087 A 
ATOM     14  C   UNL     1      97.031 126.068 120.857  1.00  0.00     0.009 A 
ATOM     15  C   UNL     1      98.335 128.041 120.219  1.00  0.00     0.027 A 
ATOM     16  C   UNL     1      97.524 127.352 121.131  1.00  0.00     0.003 A 
ATOM     17  H   UNL     1      99.848 128.656 117.834  1.00  0.00     0.166 HD
ENDROOT
BRANCH   6  18
ATOM     18  C   UNL     1      94.203 121.777 120.081  1.00  0.00     0.230 C 
ATOM     19  O   UNL     1      93.451 122.754 120.162  1.00  0.00    -0.274 OA
ATOM     20  N   UNL     1      93.759 120.498 120.435  1.00  0.00    -0.343 N 
BRANCH  20  21
ATOM     21  C   UNL     1      92.382 120.378 120.925  1.00  0.00     0.116 C 
ATOM     22  C   UNL     1      92.279 120.337 122.443  1.00  0.00     0.027 C 
ENDBRANCH  20  21
BRANCH  20  23
ATOM     23  C   UNL     1      94.609 119.306 120.515  1.00  0.00     0.116 C 
ATOM     24  C   UNL     1      94.541 118.437 119.269  1.00  0.00     0.027 C 
ENDBRANCH  20  23
ENDBRANCH   6  18
BRANCH   1  25
ATOM     25  C   UNL     1      97.918 121.428 117.263  1.00  0.00     0.112 C 
BRANCH  25  26
ATOM     26  C   UNL     1      98.503 120.943 118.559  1.00  0.00    -0.019 C 
ATOM     27  C   UNL     1      98.165 119.796 119.165  1.00  0.00     0.005 C 
ENDBRANCH  25  26
ENDBRANCH   1  25
TORSDOF 5
ENDMDL
MODEL 13
REMARK VINA RESULT:    -6.021      2.048      4.201
REMARK INTER + INTRA:          -7.812
REMARK INTER:                  -7.946
REMARK INTRA:                   0.134
REMARK UNBOUND:                -0.031
REMARK SMILES C=CCN1C[C@H](C(=O)N(CC)CC)C=C2c3cccc4[nH]cc(c34)C[C@H]21
REMARK SMILES IDX 4 1 21 2 26 3 15 4 25 5 6 6 5 7 23 8 16 9 14 10 24 11 20 12
REMARK SMILES IDX 22 13 17 14 19 15 18 16 7 18 8 19 9 20 10 21 11 22 12 23
REMARK SMILES IDX 13 24 3 25 2 26 1 27
REMARK H PARENT 21 17
ROOT
ATOM      1  N   UNL     1      96.360 119.983 117.410  1.00  0.00    -0.291 NA
ATOM      2  N   UNL     1      92.972 119.704 122.400  1.00  0.00    -0.361 N 
ATOM      3  C   UNL     1      95.783 120.248 118.754  1.00  0.00     0.092 C 
ATOM      4  C   UNL     1      95.313 121.721 118.962  1.00  0.00    -0.026 C 
ATOM      5  C   UNL     1      94.801 119.120 119.249  1.00  0.00     0.061 C 
ATOM      6  C   UNL     1      96.616 122.468 116.947  1.00  0.00     0.116 C 
ATOM      7  C   UNL     1      97.258 121.069 116.992  1.00  0.00     0.103 C 
ATOM      8  C   UNL     1      94.115 119.518 120.507  1.00  0.00    -0.020 A 
ATOM      9  C   UNL     1      94.510 122.016 120.177  1.00  0.00    -0.011 A 
ATOM     10  C   UNL     1      95.683 122.704 118.115  1.00  0.00    -0.007 C 
ATOM     11  C   UNL     1      94.011 120.886 120.844  1.00  0.00     0.010 A 
ATOM     12  C   UNL     1      93.287 120.991 122.020  1.00  0.00     0.046 A 
ATOM     13  C   UNL     1      93.467 118.801 121.485  1.00  0.00     0.087 A 
ATOM     14  C   UNL     1      94.240 123.263 120.757  1.00  0.00     0.009 A 
ATOM     15  C   UNL     1      93.006 122.229 122.602  1.00  0.00     0.027 A 
ATOM     16  C   UNL     1      93.499 123.363 121.943  1.00  0.00     0.003 A 
ATOM     17  H   UNL     1      92.446 119.463 123.228  1.00  0.00     0.166 HD
ENDROOT
BRANCH   6  18
ATOM     18  C   UNL     1      97.744 123.520 116.926  1.00  0.00     0.230 C 
ATOM     19  O   UNL     1      97.829 124.374 117.814  1.00  0.00    -0.274 OA
ATOM     20  N   UNL     1      98.692 123.456 115.898  1.00  0.00    -0.343 N 
BRANCH  20  21
ATOM     21  C   UNL     1      99.765 124.455 115.914  1.00  0.00     0.116 C 
ATOM     22  C   UNL     1     101.059 123.965 115.280  1.00  0.00     0.027 C 
ENDBRANCH  20  21
BRANCH  20  23
ATOM     23  C   UNL     1      98.601 122.582 114.724  1.00  0.00     0.116 C 
ATOM     24  C   UNL     1      98.592 123.345 113.409  1.00  0.00     0.027 C 
ENDBRANCH  20  23
ENDBRANCH   6  18
BRANCH   1  25
ATOM     25  C   UNL     1      95.479 119.467 116.365  1.00  0.00     0.112 C 
BRANCH  25  26
ATOM     26  C   UNL     1      96.090 119.056 115.055  1.00  0.00    -0.019 C 
ATOM     27  C   UNL     1      95.429 118.427 114.073  1.00  0.00     0.005 C 
ENDBRANCH  25  26
ENDBRANCH   1  25
TORSDOF 5
ENDMDL
MODEL 14
REMARK VINA RESULT:    -5.793      2.537      5.040
REMARK INTER + INTRA:          -7.518
REMARK INTER:                  -8.375
REMARK INTRA:                   0.857
REMARK UNBOUND:                -0.031
REMARK SMILES C=CCN1C[C@H](C(=O)N(CC)CC)C=C2c3cccc4[nH]cc(c34)C[C@H]21
REMARK SMILES IDX 4 1 21 2 26 3 15 4 25 5 6 6 5 7 23 8 16 9 14 10 24 11 20 12
REMARK SMILES IDX 22 13 17 14 19 15 18 16 7 18 8 19 9 20 10 21 11 22 12 23
REMARK SMILES IDX 13 24 3 25 2 26 1 27
REMARK H PARENT 21 17
ROOT
ATOM      1  N   UNL     1      96.068 120.110 117.712  1.00  0.00    -0.291 NA
ATOM      2  N   UNL     1      92.744 119.113 122.653  1.00  0.00    -0.361 N 
ATOM      3  C   UNL     1      95.464 120.219 119.066  1.00  0.00     0.092 C 
ATOM      4  C   UNL     1      94.817 121.608 119.360  1.00  0.00    -0.026 C 
ATOM      5  C   UNL     1      94.628 118.952 119.484  1.00  0.00     0.061 C 
ATOM      6  C   UNL     1      96.017 122.631 117.403  1.00  0.00     0.116 C 
ATOM      7  C   UNL     1      96.825 121.321 117.367  1.00  0.00     0.103 C 
ATOM      8  C   UNL     1      93.900 119.185 120.760  1.00  0.00    -0.020 A 
ATOM      9  C   UNL     1      93.985 121.727 120.586  1.00  0.00    -0.011 A 
ATOM     10  C   UNL     1      95.063 122.679 118.577  1.00  0.00    -0.007 C 
ATOM     11  C   UNL     1      93.629 120.506 121.179  1.00  0.00     0.010 A 
ATOM     12  C   UNL     1      92.899 120.450 122.355  1.00  0.00     0.046 A 
ATOM     13  C   UNL     1      93.346 118.335 121.688  1.00  0.00     0.087 A 
ATOM     14  C   UNL     1      93.565 122.895 121.239  1.00  0.00     0.009 A 
ATOM     15  C   UNL     1      92.469 121.605 123.009  1.00  0.00     0.027 A 
ATOM     16  C   UNL     1      92.818 122.830 122.424  1.00  0.00     0.003 A 
ATOM     17  H   UNL     1      92.253 118.759 123.461  1.00  0.00     0.166 HD
ENDROOT
BRANCH   6  18
ATOM     18  C   UNL     1      97.007 123.812 117.453  1.00  0.00     0.230 C 
ATOM     19  O   UNL     1      97.478 124.287 116.415  1.00  0.00    -0.274 OA
ATOM     20  N   UNL     1      97.328 124.357 118.702  1.00  0.00    -0.343 N 
BRANCH  20  21
ATOM     21  C   UNL     1      98.256 125.492 118.719  1.00  0.00     0.116 C 
ATOM     22  C   UNL     1      98.199 126.302 120.006  1.00  0.00     0.027 C 
ENDBRANCH  20  21
BRANCH  20  23
ATOM     23  C   UNL     1      96.944 123.779 119.994  1.00  0.00     0.116 C 
ATOM     24  C   UNL     1      97.876 122.669 120.454  1.00  0.00     0.027 C 
ENDBRANCH  20  23
ENDBRANCH   6  18
BRANCH   1  25
ATOM     25  C   UNL     1      95.256 119.555 116.632  1.00  0.00     0.112 C 
BRANCH  25  26
ATOM     26  C   UNL     1      95.934 119.201 115.339  1.00  0.00    -0.019 C 
ATOM     27  C   UNL     1      95.351 118.534 114.332  1.00  0.00     0.005 C 
ENDBRANCH  25  26
ENDBRANCH   1  25
TORSDOF 5
ENDMDL
MODEL 15
REMARK VINA RESULT:    -5.692      2.208      5.186
REMARK INTER + INTRA:          -7.387
REMARK INTER:                  -7.047
REMARK INTRA:                  -0.339
REMARK UNBOUND:                -0.031
REMARK SMILES C=CCN1C[C@H](C(=O)N(CC)CC)C=C2c3cccc4[nH]cc(c34)C[C@H]21
REMARK SMILES IDX 4 1 21 2 26 3 15 4 25 5 6 6 5 7 23 8 16 9 14 10 24 11 20 12
REMARK SMILES IDX 22 13 17 14 19 15 18 16 7 18 8 19 9 20 10 21 11 22 12 23
REMARK SMILES IDX 13 24 3 25 2 26 1 27
REMARK H PARENT 21 17
ROOT
ATOM      1  N   UNL     1      99.374 120.832 114.576  1.00  0.00    -0.291 NA
ATOM      2  N   UNL     1      95.144 120.445 118.867  1.00  0.00    -0.361 N 
ATOM      3  C   UNL     1      98.624 120.977 115.851  1.00  0.00     0.092 C 
ATOM      4  C   UNL     1      98.418 122.457 116.298  1.00  0.00    -0.026 C 
ATOM      5  C   UNL     1      97.370 120.031 115.952  1.00  0.00     0.061 C 
ATOM      6  C   UNL     1     100.186 123.236 114.691  1.00  0.00     0.116 C 
ATOM      7  C   UNL     1     100.526 121.743 114.529  1.00  0.00     0.103 C 
ATOM      8  C   UNL     1      96.556 120.344 117.157  1.00  0.00    -0.020 A 
ATOM      9  C   UNL     1      97.480 122.706 117.423  1.00  0.00    -0.011 A 
ATOM     10  C   UNL     1      99.120 123.466 115.739  1.00  0.00    -0.007 C 
ATOM     11  C   UNL     1      96.658 121.618 117.758  1.00  0.00     0.010 A 
ATOM     12  C   UNL     1      95.766 121.674 118.817  1.00  0.00     0.046 A 
ATOM     13  C   UNL     1      95.614 119.630 117.860  1.00  0.00     0.087 A 
ATOM     14  C   UNL     1      97.355 123.859 118.210  1.00  0.00     0.009 A 
ATOM     15  C   UNL     1      95.628 122.820 119.602  1.00  0.00     0.027 A 
ATOM     16  C   UNL     1      96.443 123.912 119.275  1.00  0.00     0.003 A 
ATOM     17  H   UNL     1      94.439 120.186 119.542  1.00  0.00     0.166 HD
ENDROOT
BRANCH   6  18
ATOM     18  C   UNL     1     101.481 123.992 115.052  1.00  0.00     0.230 C 
ATOM     19  O   UNL     1     102.281 123.523 115.868  1.00  0.00    -0.274 OA
ATOM     20  N   UNL     1     101.747 125.203 114.402  1.00  0.00    -0.343 N 
BRANCH  20  21
ATOM     21  C   UNL     1     102.994 125.891 114.749  1.00  0.00     0.116 C 
ATOM     22  C   UNL     1     102.795 127.070 115.690  1.00  0.00     0.027 C 
ENDBRANCH  20  21
BRANCH  20  23
ATOM     23  C   UNL     1     100.803 125.915 113.534  1.00  0.00     0.116 C 
ATOM     24  C   UNL     1     100.517 125.182 112.232  1.00  0.00     0.027 C 
ENDBRANCH  20  23
ENDBRANCH   6  18
BRANCH   1  25
ATOM     25  C   UNL     1      98.616 120.721 113.332  1.00  0.00     0.112 C 
BRANCH  25  26
ATOM     26  C   UNL     1      99.365 120.788 112.031  1.00  0.00    -0.019 C 
ATOM     27  C   UNL     1     100.391 119.990 111.702  1.00  0.00     0.005 C 
ENDBRANCH  25  26
ENDBRANCH   1  25
TORSDOF 5
ENDMDL
MODEL 16
REMARK VINA RESULT:    -5.563      2.345      7.589
REMARK INTER + INTRA:          -7.220
REMARK INTER:                  -6.504
REMARK INTRA:                  -0.716
REMARK UNBOUND:                -0.031
REMARK SMILES C=CCN1C[C@H](C(=O)N(CC)CC)C=C2c3cccc4[nH]cc(c34)C[C@H]21
REMARK SMILES IDX 4 1 21 2 26 3 15 4 25 5 6 6 5 7 23 8 16 9 14 10 24 11 20 12
REMARK SMILES IDX 22 13 17 14 19 15 18 16 7 18 8 19 9 20 10 21 11 22 12 23
REMARK SMILES IDX 13 24 3 25 2 26 1 27
REMARK H PARENT 21 17
ROOT
ATOM      1  N   UNL     1      98.054 121.988 116.087  1.00  0.00    -0.291 NA
ATOM      2  N   UNL     1     100.857 127.329 115.812  1.00  0.00    -0.361 N 
ATOM      3  C   UNL     1      98.350 123.444 116.144  1.00  0.00     0.092 C 
ATOM      4  C   UNL     1      98.021 124.103 117.519  1.00  0.00    -0.026 C 
ATOM      5  C   UNL     1      99.731 123.829 115.493  1.00  0.00     0.061 C 
ATOM      6  C   UNL     1      96.633 122.117 118.189  1.00  0.00     0.116 C 
ATOM      7  C   UNL     1      96.763 121.682 116.718  1.00  0.00     0.103 C 
ATOM      8  C   UNL     1     100.061 125.259 115.738  1.00  0.00    -0.020 A 
ATOM      9  C   UNL     1      98.506 125.489 117.745  1.00  0.00    -0.011 A 
ATOM     10  C   UNL     1      97.262 123.471 118.439  1.00  0.00    -0.007 C 
ATOM     11  C   UNL     1      99.459 125.940 116.819  1.00  0.00     0.010 A 
ATOM     12  C   UNL     1      99.970 127.227 116.862  1.00  0.00     0.046 A 
ATOM     13  C   UNL     1     100.923 126.137 115.124  1.00  0.00     0.087 A 
ATOM     14  C   UNL     1      98.093 126.404 118.724  1.00  0.00     0.009 A 
ATOM     15  C   UNL     1      99.573 128.143 117.838  1.00  0.00     0.027 A 
ATOM     16  C   UNL     1      98.622 127.702 118.769  1.00  0.00     0.003 A 
ATOM     17  H   UNL     1     101.387 128.159 115.588  1.00  0.00     0.166 HD
ENDROOT
BRANCH   6  18
ATOM     18  C   UNL     1      95.137 122.132 118.561  1.00  0.00     0.230 C 
ATOM     19  O   UNL     1      94.283 122.466 117.734  1.00  0.00    -0.274 OA
ATOM     20  N   UNL     1      94.768 121.717 119.846  1.00  0.00    -0.343 N 
BRANCH  20  21
ATOM     21  C   UNL     1      93.337 121.721 120.167  1.00  0.00     0.116 C 
ATOM     22  C   UNL     1      92.914 122.896 121.036  1.00  0.00     0.027 C 
ENDBRANCH  20  21
BRANCH  20  23
ATOM     23  C   UNL     1      95.704 121.443 120.941  1.00  0.00     0.116 C 
ATOM     24  C   UNL     1      95.228 120.340 121.874  1.00  0.00     0.027 C 
ENDBRANCH  20  23
ENDBRANCH   6  18
BRANCH   1  25
ATOM     25  C   UNL     1      99.131 121.048 116.385  1.00  0.00     0.112 C 
BRANCH  25  26
ATOM     26  C   UNL     1      99.734 120.269 115.251  1.00  0.00    -0.019 C 
ATOM     27  C   UNL     1      99.228 120.217 114.010  1.00  0.00     0.005 C 
ENDBRANCH  25  26
ENDBRANCH   1  25
TORSDOF 5
ENDMDL
MODEL 17
REMARK VINA RESULT:    -5.502      3.016      4.995
REMARK INTER + INTRA:          -7.141
REMARK INTER:                  -6.360
REMARK INTRA:                  -0.781
REMARK UNBOUND:                -0.031
REMARK SMILES C=CCN1C[C@H](C(=O)N(CC)CC)C=C2c3cccc4[nH]cc(c34)C[C@H]21
REMARK SMILES IDX 4 1 21 2 26 3 15 4 25 5 6 6 5 7 23 8 16 9 14 10 24 11 20 12
REMARK SMILES IDX 22 13 17 14 19 15 18 16 7 18 8 19 9 20 10 21 11 22 12 23
REMARK SMILES IDX 13 24 3 25 2 26 1 27
REMARK H PARENT 21 17
ROOT
ATOM      1  N   UNL     1     100.537 125.534 114.924  1.00  0.00    -0.291 NA
ATOM      2  N   UNL     1      97.591 126.401 120.122  1.00  0.00    -0.361 N 
ATOM      3  C   UNL     1      99.491 125.551 115.981  1.00  0.00     0.092 C 
ATOM      4  C   UNL     1      98.899 124.145 116.306  1.00  0.00    -0.026 C 
ATOM      5  C   UNL     1      99.859 126.460 117.212  1.00  0.00     0.061 C 
ATOM      6  C   UNL     1      99.861 123.199 114.185  1.00  0.00     0.116 C 
ATOM      7  C   UNL     1     100.149 124.663 113.805  1.00  0.00     0.103 C 
ATOM      8  C   UNL     1      98.873 126.299 118.314  1.00  0.00    -0.020 A 
ATOM      9  C   UNL     1      98.030 124.032 117.506  1.00  0.00    -0.011 A 
ATOM     10  C   UNL     1      99.101 123.089 115.489  1.00  0.00    -0.007 C 
ATOM     11  C   UNL     1      98.084 125.129 118.379  1.00  0.00     0.010 A 
ATOM     12  C   UNL     1      97.295 125.199 119.516  1.00  0.00     0.046 A 
ATOM     13  C   UNL     1      98.551 127.077 119.401  1.00  0.00     0.087 A 
ATOM     14  C   UNL     1      97.140 123.001 117.839  1.00  0.00     0.009 A 
ATOM     15  C   UNL     1      96.412 124.175 119.861  1.00  0.00     0.027 A 
ATOM     16  C   UNL     1      96.352 123.073 118.996  1.00  0.00     0.003 A 
ATOM     17  H   UNL     1      97.166 126.732 120.977  1.00  0.00     0.166 HD
ENDROOT
BRANCH   6  18
ATOM     18  C   UNL     1      99.070 122.546 113.034  1.00  0.00     0.230 C 
ATOM     19  O   UNL     1      98.240 123.195 112.388  1.00  0.00    -0.274 OA
ATOM     20  N   UNL     1      99.345 121.212 112.713  1.00  0.00    -0.343 N 
BRANCH  20  21
ATOM     21  C   UNL     1      98.593 120.621 111.601  1.00  0.00     0.116 C 
ATOM     22  C   UNL     1      99.463 119.839 110.628  1.00  0.00     0.027 C 
ENDBRANCH  20  21
BRANCH  20  23
ATOM     23  C   UNL     1     100.196 120.316 113.502  1.00  0.00     0.116 C 
ATOM     24  C   UNL     1      99.408 119.403 114.429  1.00  0.00     0.027 C 
ENDBRANCH  20  23
ENDBRANCH   6  18
BRANCH   1  25
ATOM     25  C   UNL     1     101.936 125.439 115.331  1.00  0.00     0.112 C 
BRANCH  25  26
ATOM     26  C   UNL     1     102.808 126.654 115.182  1.00  0.00    -0.019 C 
ATOM     27  C   UNL     1     103.147 127.475 116.186  1.00  0.00     0.005 C 
ENDBRANCH  25  26
ENDBRANCH   1  25
TORSDOF 5
ENDMDL
MODEL 18
REMARK VINA RESULT:    -5.415      2.098      4.202
REMARK INTER + INTRA:          -7.029
REMARK INTER:                  -6.815
REMARK INTRA:                  -0.214
REMARK UNBOUND:                -0.031
REMARK SMILES C=CCN1C[C@H](C(=O)N(CC)CC)C=C2c3cccc4[nH]cc(c34)C[C@H]21
REMARK SMILES IDX 4 1 21 2 26 3 15 4 25 5 6 6 5 7 23 8 16 9 14 10 24 11 20 12
REMARK SMILES IDX 22 13 17 14 19 15 18 16 7 18 8 19 9 20 10 21 11 22 12 23
REMARK SMILES IDX 13 24 3 25 2 26 1 27
REMARK H PARENT 21 17
ROOT
ATOM      1  N   UNL     1      98.312 121.131 116.480  1.00  0.00    -0.291 NA
ATOM      2  N   UNL     1      93.977 118.984 120.093  1.00  0.00    -0.361 N 
ATOM      3  C   UNL     1      97.356 120.953 117.605  1.00  0.00     0.092 C 
ATOM      4  C   UNL     1      96.443 122.193 117.860  1.00  0.00    -0.026 C 
ATOM      5  C   UNL     1      96.648 119.547 117.610  1.00  0.00     0.061 C 
ATOM      6  C   UNL     1      97.951 123.645 116.469  1.00  0.00     0.116 C 
ATOM      7  C   UNL     1      98.935 122.462 116.515  1.00  0.00     0.103 C 
ATOM      8  C   UNL     1      95.575 119.489 118.638  1.00  0.00    -0.020 A 
ATOM      9  C   UNL     1      95.303 122.019 118.797  1.00  0.00    -0.011 A 
ATOM     10  C   UNL     1      96.720 123.396 117.313  1.00  0.00    -0.007 C 
ATOM     11  C   UNL     1      94.997 120.687 119.113  1.00  0.00     0.010 A 
ATOM     12  C   UNL     1      93.994 120.360 120.012  1.00  0.00     0.046 A 
ATOM     13  C   UNL     1      94.931 118.444 119.259  1.00  0.00     0.087 A 
ATOM     14  C   UNL     1      94.544 123.012 119.432  1.00  0.00     0.009 A 
ATOM     15  C   UNL     1      93.227 121.340 120.644  1.00  0.00     0.027 A 
ATOM     16  C   UNL     1      93.524 122.674 120.334  1.00  0.00     0.003 A 
ATOM     17  H   UNL     1      93.347 118.452 120.676  1.00  0.00     0.166 HD
ENDROOT
BRANCH   6  18
ATOM     18  C   UNL     1      98.692 124.912 116.943  1.00  0.00     0.230 C 
ATOM     19  O   UNL     1      98.307 125.535 117.938  1.00  0.00    -0.274 OA
ATOM     20  N   UNL     1      99.836 125.314 116.243  1.00  0.00    -0.343 N 
BRANCH  20  21
ATOM     21  C   UNL     1     100.533 126.509 116.727  1.00  0.00     0.116 C 
ATOM     22  C   UNL     1     101.017 127.423 115.611  1.00  0.00     0.027 C 
ENDBRANCH  20  21
BRANCH  20  23
ATOM     23  C   UNL     1     100.289 124.736 114.973  1.00  0.00     0.116 C 
ATOM     24  C   UNL     1     101.574 123.934 115.106  1.00  0.00     0.027 C 
ENDBRANCH  20  23
ENDBRANCH   6  18
BRANCH   1  25
ATOM     25  C   UNL     1      97.921 120.661 115.154  1.00  0.00     0.112 C 
BRANCH  25  26
ATOM     26  C   UNL     1      98.966 120.612 114.076  1.00  0.00    -0.019 C 
ATOM     27  C   UNL     1      99.070 121.500 113.077  1.00  0.00     0.005 C 
ENDBRANCH  25  26
ENDBRANCH   1  25
TORSDOF 5
ENDMDL
MODEL 19
REMARK VINA RESULT:    -5.337      1.786      4.836
REMARK INTER + INTRA:          -6.928
REMARK INTER:                  -8.054
REMARK INTRA:                   1.126
REMARK UNBOUND:                -0.031
REMARK SMILES C=CCN1C[C@H](C(=O)N(CC)CC)C=C2c3cccc4[nH]cc(c34)C[C@H]21
REMARK SMILES IDX 4 1 21 2 26 3 15 4 25 5 6 6 5 7 23 8 16 9 14 10 24 11 20 12
REMARK SMILES IDX 22 13 17 14 19 15 18 16 7 18 8 19 9 20 10 21 11 22 12 23
REMARK SMILES IDX 13 24 3 25 2 26 1 27
REMARK H PARENT 21 17
ROOT
ATOM      1  N   UNL     1      98.024 121.141 116.756  1.00  0.00    -0.291 NA
ATOM      2  N   UNL     1      93.727 118.898 120.356  1.00  0.00    -0.361 N 
ATOM      3  C   UNL     1      97.076 120.935 117.884  1.00  0.00     0.092 C 
ATOM      4  C   UNL     1      96.159 122.164 118.171  1.00  0.00    -0.026 C 
ATOM      5  C   UNL     1      96.376 119.525 117.866  1.00  0.00     0.061 C 
ATOM      6  C   UNL     1      97.649 123.653 116.799  1.00  0.00     0.116 C 
ATOM      7  C   UNL     1      98.639 122.474 116.814  1.00  0.00     0.103 C 
ATOM      8  C   UNL     1      95.311 119.441 118.900  1.00  0.00    -0.020 A 
ATOM      9  C   UNL     1      95.027 121.966 119.113  1.00  0.00    -0.011 A 
ATOM     10  C   UNL     1      96.426 123.379 117.647  1.00  0.00    -0.007 C 
ATOM     11  C   UNL     1      94.730 120.625 119.404  1.00  0.00     0.010 A 
ATOM     12  C   UNL     1      93.736 120.275 120.303  1.00  0.00     0.046 A 
ATOM     13  C   UNL     1      94.678 118.379 119.504  1.00  0.00     0.087 A 
ATOM     14  C   UNL     1      94.268 122.940 119.774  1.00  0.00     0.009 A 
ATOM     15  C   UNL     1      92.968 121.237 120.961  1.00  0.00     0.027 A 
ATOM     16  C   UNL     1      93.256 122.579 120.676  1.00  0.00     0.003 A 
ATOM     17  H   UNL     1      93.104 118.350 120.933  1.00  0.00     0.166 HD
ENDROOT
BRANCH   6  18
ATOM     18  C   UNL     1      98.387 124.914 117.293  1.00  0.00     0.230 C 
ATOM     19  O   UNL     1      99.229 125.473 116.583  1.00  0.00    -0.274 OA
ATOM     20  N   UNL     1      98.051 125.431 118.550  1.00  0.00    -0.343 N 
BRANCH  20  21
ATOM     21  C   UNL     1      98.753 126.641 118.986  1.00  0.00     0.116 C 
ATOM     22  C   UNL     1      98.142 127.926 118.446  1.00  0.00     0.027 C 
ENDBRANCH  20  21
BRANCH  20  23
ATOM     23  C   UNL     1      97.180 124.766 119.525  1.00  0.00     0.116 C 
ATOM     24  C   UNL     1      96.794 125.663 120.692  1.00  0.00     0.027 C 
ENDBRANCH  20  23
ENDBRANCH   6  18
BRANCH   1  25
ATOM     25  C   UNL     1      97.625 120.696 115.424  1.00  0.00     0.112 C 
BRANCH  25  26
ATOM     26  C   UNL     1      98.699 120.290 114.455  1.00  0.00    -0.019 C 
ATOM     27  C   UNL     1      99.098 121.027 113.409  1.00  0.00     0.005 C 
ENDBRANCH  25  26
ENDBRANCH   1  25
TORSDOF 5
ENDMDL
MODEL 20
REMARK VINA RESULT:    -5.115      3.609      7.301
REMARK INTER + INTRA:          -6.642
REMARK INTER:                  -5.897
REMARK INTRA:                  -0.745
REMARK UNBOUND:                -0.031
REMARK SMILES C=CCN1C[C@H](C(=O)N(CC)CC)C=C2c3cccc4[nH]cc(c34)C[C@H]21
REMARK SMILES IDX 4 1 21 2 26 3 15 4 25 5 6 6 5 7 23 8 16 9 14 10 24 11 20 12
REMARK SMILES IDX 22 13 17 14 19 15 18 16 7 18 8 19 9 20 10 21 11 22 12 23
REMARK SMILES IDX 13 24 3 25 2 26 1 27
REMARK H PARENT 21 17
ROOT
ATOM      1  N   UNL     1      98.821 127.046 118.506  1.00  0.00    -0.291 NA
ATOM      2  N   UNL     1      96.863 121.441 117.413  1.00  0.00    -0.361 N 
ATOM      3  C   UNL     1      98.397 125.631 118.668  1.00  0.00     0.092 C 
ATOM      4  C   UNL     1      97.260 125.427 119.717  1.00  0.00    -0.026 C 
ATOM      5  C   UNL     1      98.239 124.863 117.303  1.00  0.00     0.061 C 
ATOM      6  C   UNL     1      97.664 127.720 120.665  1.00  0.00     0.116 C 
ATOM      7  C   UNL     1      98.943 127.718 119.808  1.00  0.00     0.103 C 
ATOM      8  C   UNL     1      97.640 123.517 117.509  1.00  0.00    -0.020 A 
ATOM      9  C   UNL     1      96.612 124.092 119.770  1.00  0.00    -0.011 A 
ATOM     10  C   UNL     1      96.930 126.399 120.594  1.00  0.00    -0.007 C 
ATOM     11  C   UNL     1      96.885 123.259 118.674  1.00  0.00     0.010 A 
ATOM     12  C   UNL     1      96.396 121.965 118.599  1.00  0.00     0.046 A 
ATOM     13  C   UNL     1      97.618 122.377 116.740  1.00  0.00     0.087 A 
ATOM     14  C   UNL     1      95.816 123.553 120.791  1.00  0.00     0.009 A 
ATOM     15  C   UNL     1      95.596 121.422 119.606  1.00  0.00     0.027 A 
ATOM     16  C   UNL     1      95.317 122.246 120.704  1.00  0.00     0.003 A 
ATOM     17  H   UNL     1      96.671 120.505 117.084  1.00  0.00     0.166 HD
ENDROOT
BRANCH   6  18
ATOM     18  C   UNL     1      98.054 128.053 122.119  1.00  0.00     0.230 C 
ATOM     19  O   UNL     1      99.022 127.503 122.655  1.00  0.00    -0.274 OA
ATOM     20  N   UNL     1      97.311 129.022 122.802  1.00  0.00    -0.343 N 
BRANCH  20  21
ATOM     21  C   UNL     1      97.716 129.334 124.176  1.00  0.00     0.116 C 
ATOM     22  C   UNL     1      98.760 130.437 124.265  1.00  0.00     0.027 C 
ENDBRANCH  20  21
BRANCH  20  23
ATOM     23  C   UNL     1      96.065 129.623 122.313  1.00  0.00     0.116 C 
ATOM     24  C   UNL     1      96.277 130.956 121.613  1.00  0.00     0.027 C 
ENDBRANCH  20  23
ENDBRANCH   6  18
BRANCH   1  25
ATOM     25  C   UNL     1      98.200 127.842 117.450  1.00  0.00     0.112 C 
BRANCH  25  26
ATOM     26  C   UNL     1      97.020 128.702 117.804  1.00  0.00    -0.019 C 
ATOM     27  C   UNL     1      95.742 128.377 117.561  1.00  0.00     0.005 C 
ENDBRANCH  25  26
ENDBRANCH   1  25
TORSDOF 5
ENDMDL
