MODEL 1
REMARK VINA RESULT:    -9.415      0.000      0.000
REMARK INTER + INTRA:         -12.793
REMARK INTER:                 -12.167
REMARK INTRA:                  -0.626
REMARK UNBOUND:                -0.626
REMARK SMILES C=CCN1C[C@H](C(=O)N(CC)CC)C=C2c3cccc4[nH]cc(c34)C[C@H]21
REMARK SMILES IDX 4 1 21 2 26 3 15 4 25 5 6 6 5 7 23 8 16 9 14 10 24 11 20 12
REMARK SMILES IDX 22 13 17 14 19 15 18 16 7 18 8 19 9 20 10 21 11 22 12 23
REMARK SMILES IDX 13 24 3 25 2 26 1 27
REMARK H PARENT 21 17
ROOT
ATOM      1  N   UNL     1     105.386 135.874 127.363  1.00  0.00    -0.291 NA
ATOM      2  N   UNL     1     108.268 141.113 126.529  1.00  0.00    -0.361 N 
ATOM      3  C   UNL     1     106.441 136.916 127.258  1.00  0.00     0.092 C 
ATOM      4  C   UNL     1     107.599 136.547 126.280  1.00  0.00    -0.026 C 
ATOM      5  C   UNL     1     105.869 138.379 127.149  1.00  0.00     0.061 C 
ATOM      6  C   UNL     1     106.886 134.136 126.275  1.00  0.00     0.116 C 
ATOM      7  C   UNL     1     105.972 134.529 127.451  1.00  0.00     0.103 C 
ATOM      8  C   UNL     1     106.950 139.359 126.862  1.00  0.00    -0.020 A 
ATOM      9  C   UNL     1     108.565 137.620 125.930  1.00  0.00    -0.011 A 
ATOM     10  C   UNL     1     107.764 135.285 125.829  1.00  0.00    -0.007 C 
ATOM     11  C   UNL     1     108.157 138.917 126.277  1.00  0.00     0.010 A 
ATOM     12  C   UNL     1     108.968 140.021 126.064  1.00  0.00     0.046 A 
ATOM     13  C   UNL     1     107.039 140.724 127.013  1.00  0.00     0.087 A 
ATOM     14  C   UNL     1     109.835 137.489 125.352  1.00  0.00     0.009 A 
ATOM     15  C   UNL     1     110.231 139.903 125.481  1.00  0.00     0.027 A 
ATOM     16  C   UNL     1     110.647 138.611 125.130  1.00  0.00     0.003 A 
ATOM     17  H   UNL     1     108.609 142.064 126.508  1.00  0.00     0.166 HD
ENDROOT
BRANCH   6  18
ATOM     18  C   UNL     1     107.742 132.929 126.709  1.00  0.00     0.230 C 
ATOM     19  O   UNL     1     108.145 132.824 127.872  1.00  0.00    -0.274 OA
ATOM     20  N   UNL     1     108.017 131.936 125.762  1.00  0.00    -0.343 N 
BRANCH  20  21
ATOM     21  C   UNL     1     108.816 130.789 126.206  1.00  0.00     0.116 C 
ATOM     22  C   UNL     1     108.006 129.738 126.952  1.00  0.00     0.027 C 
ENDBRANCH  20  21
BRANCH  20  23
ATOM     23  C   UNL     1     107.715 132.034 124.330  1.00  0.00     0.116 C 
ATOM     24  C   UNL     1     108.508 131.051 123.482  1.00  0.00     0.027 C 
ENDBRANCH  20  23
ENDBRANCH   6  18
BRANCH   1  25
ATOM     25  C   UNL     1     104.210 135.986 126.505  1.00  0.00     0.112 C 
BRANCH  25  26
ATOM     26  C   UNL     1     102.980 135.207 126.873  1.00  0.00    -0.019 C 
ATOM     27  C   UNL     1     102.421 135.198 128.092  1.00  0.00     0.005 C 
ENDBRANCH  25  26
ENDBRANCH   1  25
TORSDOF 5
ENDMDL
MODEL 2
REMARK VINA RESULT:    -9.104      1.801      2.284
REMARK INTER + INTRA:         -12.391
REMARK INTER:                 -11.706
REMARK INTRA:                  -0.684
REMARK UNBOUND:                -0.626
REMARK SMILES C=CCN1C[C@H](C(=O)N(CC)CC)C=C2c3cccc4[nH]cc(c34)C[C@H]21
REMARK SMILES IDX 4 1 21 2 26 3 15 4 25 5 6 6 5 7 23 8 16 9 14 10 24 11 20 12
REMARK SMILES IDX 22 13 17 14 19 15 18 16 7 18 8 19 9 20 10 21 11 22 12 23
REMARK SMILES IDX 13 24 3 25 2 26 1 27
REMARK H PARENT 21 17
ROOT
ATOM      1  N   UNL     1     106.483 138.022 127.680  1.00  0.00    -0.291 NA
ATOM      2  N   UNL     1     110.591 141.901 125.551  1.00  0.00    -0.361 N 
ATOM      3  C   UNL     1     107.762 138.644 127.246  1.00  0.00     0.092 C 
ATOM      4  C   UNL     1     108.546 137.805 126.191  1.00  0.00    -0.026 C 
ATOM      5  C   UNL     1     107.646 140.190 126.971  1.00  0.00     0.061 C 
ATOM      6  C   UNL     1     107.155 135.776 126.703  1.00  0.00     0.116 C 
ATOM      7  C   UNL     1     106.643 136.580 127.913  1.00  0.00     0.103 C 
ATOM      8  C   UNL     1     108.896 140.723 126.367  1.00  0.00    -0.020 A 
ATOM      9  C   UNL     1     109.704 138.456 125.526  1.00  0.00    -0.011 A 
ATOM     10  C   UNL     1     108.235 136.515 125.945  1.00  0.00    -0.007 C 
ATOM     11  C   UNL     1     109.780 139.847 125.700  1.00  0.00     0.010 A 
ATOM     12  C   UNL     1     110.828 140.593 125.185  1.00  0.00     0.046 A 
ATOM     13  C   UNL     1     109.417 141.992 126.267  1.00  0.00     0.087 A 
ATOM     14  C   UNL     1     110.742 137.852 124.802  1.00  0.00     0.009 A 
ATOM     15  C   UNL     1     111.861 140.002 124.457  1.00  0.00     0.027 A 
ATOM     16  C   UNL     1     111.795 138.614 124.276  1.00  0.00     0.003 A 
ATOM     17  H   UNL     1     111.192 142.679 125.319  1.00  0.00     0.166 HD
ENDROOT
BRANCH   6  18
ATOM     18  C   UNL     1     107.675 134.415 127.210  1.00  0.00     0.230 C 
ATOM     19  O   UNL     1     108.065 134.281 128.375  1.00  0.00    -0.274 OA
ATOM     20  N   UNL     1     107.655 133.327 126.330  1.00  0.00    -0.343 N 
BRANCH  20  21
ATOM     21  C   UNL     1     108.136 132.040 126.844  1.00  0.00     0.116 C 
ATOM     22  C   UNL     1     107.528 130.839 126.136  1.00  0.00     0.027 C 
ENDBRANCH  20  21
BRANCH  20  23
ATOM     23  C   UNL     1     107.353 133.411 124.898  1.00  0.00     0.116 C 
ATOM     24  C   UNL     1     108.587 133.635 124.038  1.00  0.00     0.027 C 
ENDBRANCH  20  23
ENDBRANCH   6  18
BRANCH   1  25
ATOM     25  C   UNL     1     105.253 138.409 126.993  1.00  0.00     0.112 C 
BRANCH  25  26
ATOM     26  C   UNL     1     104.112 138.938 127.815  1.00  0.00    -0.019 C 
ATOM     27  C   UNL     1     104.252 139.642 128.947  1.00  0.00     0.005 C 
ENDBRANCH  25  26
ENDBRANCH   1  25
TORSDOF 5
ENDMDL
MODEL 3
REMARK VINA RESULT:    -8.767      2.677      5.938
REMARK INTER + INTRA:         -11.956
REMARK INTER:                 -11.139
REMARK INTRA:                  -0.817
REMARK UNBOUND:                -0.626
REMARK SMILES C=CCN1C[C@H](C(=O)N(CC)CC)C=C2c3cccc4[nH]cc(c34)C[C@H]21
REMARK SMILES IDX 4 1 21 2 26 3 15 4 25 5 6 6 5 7 23 8 16 9 14 10 24 11 20 12
REMARK SMILES IDX 22 13 17 14 19 15 18 16 7 18 8 19 9 20 10 21 11 22 12 23
REMARK SMILES IDX 13 24 3 25 2 26 1 27
REMARK H PARENT 21 17
ROOT
ATOM      1  N   UNL     1     107.079 136.145 126.479  1.00  0.00    -0.291 NA
ATOM      2  N   UNL     1     111.700 139.463 124.457  1.00  0.00    -0.361 N 
ATOM      3  C   UNL     1     107.897 137.254 125.921  1.00  0.00     0.092 C 
ATOM      4  C   UNL     1     107.747 138.601 126.692  1.00  0.00    -0.026 C 
ATOM      5  C   UNL     1     109.363 136.821 125.540  1.00  0.00     0.061 C 
ATOM      6  C   UNL     1     105.670 137.767 127.836  1.00  0.00     0.116 C 
ATOM      7  C   UNL     1     105.727 136.604 126.828  1.00  0.00     0.103 C 
ATOM      8  C   UNL     1     110.189 137.998 125.162  1.00  0.00    -0.020 A 
ATOM      9  C   UNL     1     108.702 139.689 126.356  1.00  0.00    -0.011 A 
ATOM     10  C   UNL     1     106.744 138.800 127.573  1.00  0.00    -0.007 C 
ATOM     11  C   UNL     1     109.816 139.286 125.604  1.00  0.00     0.010 A 
ATOM     12  C   UNL     1     110.770 140.191 125.168  1.00  0.00     0.046 A 
ATOM     13  C   UNL     1     111.359 138.128 124.450  1.00  0.00     0.087 A 
ATOM     14  C   UNL     1     108.598 141.056 126.652  1.00  0.00     0.009 A 
ATOM     15  C   UNL     1     110.681 141.552 125.463  1.00  0.00     0.027 A 
ATOM     16  C   UNL     1     109.573 141.965 126.215  1.00  0.00     0.003 A 
ATOM     17  H   UNL     1     112.518 139.856 124.013  1.00  0.00     0.166 HD
ENDROOT
BRANCH   6  18
ATOM     18  C   UNL     1     104.268 138.404 127.763  1.00  0.00     0.230 C 
ATOM     19  O   UNL     1     103.703 138.569 126.677  1.00  0.00    -0.274 OA
ATOM     20  N   UNL     1     103.634 138.754 128.961  1.00  0.00    -0.343 N 
BRANCH  20  21
ATOM     21  C   UNL     1     102.293 139.339 128.865  1.00  0.00     0.116 C 
ATOM     22  C   UNL     1     101.990 140.344 129.966  1.00  0.00     0.027 C 
ENDBRANCH  20  21
BRANCH  20  23
ATOM     23  C   UNL     1     104.270 138.737 130.283  1.00  0.00     0.116 C 
ATOM     24  C   UNL     1     103.893 137.520 131.113  1.00  0.00     0.027 C 
ENDBRANCH  20  23
ENDBRANCH   6  18
BRANCH   1  25
ATOM     25  C   UNL     1     107.698 135.243 127.446  1.00  0.00     0.112 C 
BRANCH  25  26
ATOM     26  C   UNL     1     107.727 133.773 127.135  1.00  0.00    -0.019 C 
ATOM     27  C   UNL     1     107.402 133.240 125.948  1.00  0.00     0.005 C 
ENDBRANCH  25  26
ENDBRANCH   1  25
TORSDOF 5
ENDMDL
MODEL 4
REMARK VINA RESULT:    -8.749      2.537      5.740
REMARK INTER + INTRA:         -11.932
REMARK INTER:                 -11.180
REMARK INTRA:                  -0.751
REMARK UNBOUND:                -0.626
REMARK SMILES C=CCN1C[C@H](C(=O)N(CC)CC)C=C2c3cccc4[nH]cc(c34)C[C@H]21
REMARK SMILES IDX 4 1 21 2 26 3 15 4 25 5 6 6 5 7 23 8 16 9 14 10 24 11 20 12
REMARK SMILES IDX 22 13 17 14 19 15 18 16 7 18 8 19 9 20 10 21 11 22 12 23
REMARK SMILES IDX 13 24 3 25 2 26 1 27
REMARK H PARENT 21 17
ROOT
ATOM      1  N   UNL     1     106.636 134.851 125.883  1.00  0.00    -0.291 NA
ATOM      2  N   UNL     1     111.799 136.993 123.602  1.00  0.00    -0.361 N 
ATOM      3  C   UNL     1     107.668 135.742 125.290  1.00  0.00     0.092 C 
ATOM      4  C   UNL     1     107.910 137.054 126.099  1.00  0.00    -0.026 C 
ATOM      5  C   UNL     1     108.950 134.974 124.795  1.00  0.00     0.061 C 
ATOM      6  C   UNL     1     105.770 136.717 127.372  1.00  0.00     0.116 C 
ATOM      7  C   UNL     1     105.468 135.617 126.338  1.00  0.00     0.103 C 
ATOM      8  C   UNL     1     110.019 135.923 124.383  1.00  0.00    -0.020 A 
ATOM      9  C   UNL     1     109.083 137.883 125.718  1.00  0.00    -0.011 A 
ATOM     10  C   UNL     1     107.049 137.461 127.055  1.00  0.00    -0.007 C 
ATOM     11  C   UNL     1     110.009 137.245 124.878  1.00  0.00     0.010 A 
ATOM     12  C   UNL     1     111.130 137.901 124.393  1.00  0.00     0.046 A 
ATOM     13  C   UNL     1     111.135 135.786 123.591  1.00  0.00     0.087 A 
ATOM     14  C   UNL     1     109.345 139.220 126.049  1.00  0.00     0.009 A 
ATOM     15  C   UNL     1     111.404 139.229 124.723  1.00  0.00     0.027 A 
ATOM     16  C   UNL     1     110.485 139.875 125.562  1.00  0.00     0.003 A 
ATOM     17  H   UNL     1     112.659 137.187 123.108  1.00  0.00     0.166 HD
ENDROOT
BRANCH   6  18
ATOM     18  C   UNL     1     104.570 137.686 127.415  1.00  0.00     0.230 C 
ATOM     19  O   UNL     1     103.885 137.889 126.408  1.00  0.00    -0.274 OA
ATOM     20  N   UNL     1     104.253 138.296 128.634  1.00  0.00    -0.343 N 
BRANCH  20  21
ATOM     21  C   UNL     1     103.095 139.196 128.652  1.00  0.00     0.116 C 
ATOM     22  C   UNL     1     102.020 138.782 129.647  1.00  0.00     0.027 C 
ENDBRANCH  20  21
BRANCH  20  23
ATOM     23  C   UNL     1     105.081 138.238 129.843  1.00  0.00     0.116 C 
ATOM     24  C   UNL     1     106.077 139.383 129.941  1.00  0.00     0.027 C 
ENDBRANCH  20  23
ENDBRANCH   6  18
BRANCH   1  25
ATOM     25  C   UNL     1     107.072 133.786 126.783  1.00  0.00     0.112 C 
BRANCH  25  26
ATOM     26  C   UNL     1     106.877 132.361 126.350  1.00  0.00    -0.019 C 
ATOM     27  C   UNL     1     107.738 131.674 125.585  1.00  0.00     0.005 C 
ENDBRANCH  25  26
ENDBRANCH   1  25
TORSDOF 5
ENDMDL
MODEL 5
REMARK VINA RESULT:    -8.498      2.282      5.621
REMARK INTER + INTRA:         -11.608
REMARK INTER:                 -11.047
REMARK INTRA:                  -0.560
REMARK UNBOUND:                -0.626
REMARK SMILES C=CCN1C[C@H](C(=O)N(CC)CC)C=C2c3cccc4[nH]cc(c34)C[C@H]21
REMARK SMILES IDX 4 1 21 2 26 3 15 4 25 5 6 6 5 7 23 8 16 9 14 10 24 11 20 12
REMARK SMILES IDX 22 13 17 14 19 15 18 16 7 18 8 19 9 20 10 21 11 22 12 23
REMARK SMILES IDX 13 24 3 25 2 26 1 27
REMARK H PARENT 21 17
ROOT
ATOM      1  N   UNL     1     106.455 134.683 127.116  1.00  0.00    -0.291 NA
ATOM      2  N   UNL     1     109.920 139.269 125.269  1.00  0.00    -0.361 N 
ATOM      3  C   UNL     1     106.919 136.006 126.622  1.00  0.00     0.092 C 
ATOM      4  C   UNL     1     106.422 137.211 127.480  1.00  0.00    -0.026 C 
ATOM      5  C   UNL     1     108.436 136.021 126.202  1.00  0.00     0.061 C 
ATOM      6  C   UNL     1     104.688 135.765 128.586  1.00  0.00     0.116 C 
ATOM      7  C   UNL     1     105.038 134.726 127.505  1.00  0.00     0.103 C 
ATOM      8  C   UNL     1     108.894 137.402 125.892  1.00  0.00    -0.020 A 
ATOM      9  C   UNL     1     107.028 138.539 127.206  1.00  0.00    -0.011 A 
ATOM     10  C   UNL     1     105.426 137.070 128.381  1.00  0.00    -0.007 C 
ATOM     11  C   UNL     1     108.189 138.507 126.419  1.00  0.00     0.010 A 
ATOM     12  C   UNL     1     108.844 139.666 126.033  1.00  0.00     0.046 A 
ATOM     13  C   UNL     1     109.963 137.894 125.179  1.00  0.00     0.087 A 
ATOM     14  C   UNL     1     106.558 139.803 127.589  1.00  0.00     0.009 A 
ATOM     15  C   UNL     1     108.389 140.929 126.416  1.00  0.00     0.027 A 
ATOM     16  C   UNL     1     107.230 140.971 127.203  1.00  0.00     0.003 A 
ATOM     17  H   UNL     1     110.585 139.899 124.844  1.00  0.00     0.166 HD
ENDROOT
BRANCH   6  18
ATOM     18  C   UNL     1     103.163 135.990 128.568  1.00  0.00     0.230 C 
ATOM     19  O   UNL     1     102.480 135.613 127.610  1.00  0.00    -0.274 OA
ATOM     20  N   UNL     1     102.567 136.596 129.680  1.00  0.00    -0.343 N 
BRANCH  20  21
ATOM     21  C   UNL     1     101.113 136.779 129.645  1.00  0.00     0.116 C 
ATOM     22  C   UNL     1     100.455 136.680 131.013  1.00  0.00     0.027 C 
ENDBRANCH  20  21
BRANCH  20  23
ATOM     23  C   UNL     1     103.298 137.209 130.794  1.00  0.00     0.116 C 
ATOM     24  C   UNL     1     103.374 138.725 130.698  1.00  0.00     0.027 C 
ENDBRANCH  20  23
ENDBRANCH   6  18
BRANCH   1  25
ATOM     25  C   UNL     1     107.325 133.933 128.017  1.00  0.00     0.112 C 
BRANCH  25  26
ATOM     26  C   UNL     1     107.835 132.593 127.568  1.00  0.00    -0.019 C 
ATOM     27  C   UNL     1     107.767 132.136 126.309  1.00  0.00     0.005 C 
ENDBRANCH  25  26
ENDBRANCH   1  25
TORSDOF 5
ENDMDL
MODEL 6
REMARK VINA RESULT:    -8.427      2.636      6.536
REMARK INTER + INTRA:         -11.517
REMARK INTER:                 -10.976
REMARK INTRA:                  -0.541
REMARK UNBOUND:                -0.626
REMARK SMILES C=CCN1C[C@H](C(=O)N(CC)CC)C=C2c3cccc4[nH]cc(c34)C[C@H]21
REMARK SMILES IDX 4 1 21 2 26 3 15 4 25 5 6 6 5 7 23 8 16 9 14 10 24 11 20 12
REMARK SMILES IDX 22 13 17 14 19 15 18 16 7 18 8 19 9 20 10 21 11 22 12 23
REMARK SMILES IDX 13 24 3 25 2 26 1 27
REMARK H PARENT 21 17
ROOT
ATOM      1  N   UNL     1     106.812 139.460 127.836  1.00  0.00    -0.291 NA
ATOM      2  N   UNL     1     110.325 136.014 124.336  1.00  0.00    -0.361 N 
ATOM      3  C   UNL     1     107.514 138.297 127.230  1.00  0.00     0.092 C 
ATOM      4  C   UNL     1     106.559 137.156 126.761  1.00  0.00    -0.026 C 
ATOM      5  C   UNL     1     108.662 138.707 126.233  1.00  0.00     0.061 C 
ATOM      6  C   UNL     1     104.671 138.120 128.111  1.00  0.00     0.116 C 
ATOM      7  C   UNL     1     105.746 139.022 128.747  1.00  0.00     0.103 C 
ATOM      8  C   UNL     1     109.205 137.520 125.520  1.00  0.00    -0.020 A 
ATOM      9  C   UNL     1     107.147 136.072 125.932  1.00  0.00    -0.011 A 
ATOM     10  C   UNL     1     105.268 137.113 127.154  1.00  0.00    -0.007 C 
ATOM     11  C   UNL     1     108.421 136.350 125.414  1.00  0.00     0.010 A 
ATOM     12  C   UNL     1     109.125 135.421 124.664  1.00  0.00     0.046 A 
ATOM     13  C   UNL     1     110.383 137.292 124.848  1.00  0.00     0.087 A 
ATOM     14  C   UNL     1     106.613 134.806 125.654  1.00  0.00     0.009 A 
ATOM     15  C   UNL     1     108.599 134.161 124.375  1.00  0.00     0.027 A 
ATOM     16  C   UNL     1     107.326 133.874 124.887  1.00  0.00     0.003 A 
ATOM     17  H   UNL     1     111.052 135.573 123.790  1.00  0.00     0.166 HD
ENDROOT
BRANCH   6  18
ATOM     18  C   UNL     1     103.901 137.410 129.244  1.00  0.00     0.230 C 
ATOM     19  O   UNL     1     104.282 136.319 129.679  1.00  0.00    -0.274 OA
ATOM     20  N   UNL     1     102.786 138.053 129.793  1.00  0.00    -0.343 N 
BRANCH  20  21
ATOM     21  C   UNL     1     102.085 137.365 130.882  1.00  0.00     0.116 C 
ATOM     22  C   UNL     1     100.748 136.772 130.463  1.00  0.00     0.027 C 
ENDBRANCH  20  21
BRANCH  20  23
ATOM     23  C   UNL     1     102.169 139.270 129.256  1.00  0.00     0.116 C 
ATOM     24  C   UNL     1     102.516 140.519 130.052  1.00  0.00     0.027 C 
ENDBRANCH  20  23
ENDBRANCH   6  18
BRANCH   1  25
ATOM     25  C   UNL     1     106.473 140.591 126.977  1.00  0.00     0.112 C 
BRANCH  25  26
ATOM     26  C   UNL     1     107.339 141.817 127.035  1.00  0.00    -0.019 C 
ATOM     27  C   UNL     1     108.459 141.992 126.320  1.00  0.00     0.005 C 
ENDBRANCH  25  26
ENDBRANCH   1  25
TORSDOF 5
ENDMDL
MODEL 7
REMARK VINA RESULT:    -7.917      1.883      4.709
REMARK INTER + INTRA:         -10.856
REMARK INTER:                 -10.238
REMARK INTRA:                  -0.619
REMARK UNBOUND:                -0.626
REMARK SMILES C=CCN1C[C@H](C(=O)N(CC)CC)C=C2c3cccc4[nH]cc(c34)C[C@H]21
REMARK SMILES IDX 4 1 21 2 26 3 15 4 25 5 6 6 5 7 23 8 16 9 14 10 24 11 20 12
REMARK SMILES IDX 22 13 17 14 19 15 18 16 7 18 8 19 9 20 10 21 11 22 12 23
REMARK SMILES IDX 13 24 3 25 2 26 1 27
REMARK H PARENT 21 17
ROOT
ATOM      1  N   UNL     1     108.343 137.199 125.514  1.00  0.00    -0.291 NA
ATOM      2  N   UNL     1     103.939 139.732 128.776  1.00  0.00    -0.361 N 
ATOM      3  C   UNL     1     107.033 137.486 126.156  1.00  0.00     0.092 C 
ATOM      4  C   UNL     1     106.465 136.297 126.991  1.00  0.00    -0.026 C 
ATOM      5  C   UNL     1     106.958 138.911 126.820  1.00  0.00     0.061 C 
ATOM      6  C   UNL     1     108.072 134.703 125.900  1.00  0.00     0.116 C 
ATOM      7  C   UNL     1     108.363 135.855 124.920  1.00  0.00     0.103 C 
ATOM      8  C   UNL     1     105.703 139.075 127.601  1.00  0.00    -0.020 A 
ATOM      9  C   UNL     1     105.289 136.573 127.858  1.00  0.00    -0.011 A 
ATOM     10  C   UNL     1     106.970 135.051 126.876  1.00  0.00    -0.007 C 
ATOM     11  C   UNL     1     105.009 137.933 128.057  1.00  0.00     0.010 A 
ATOM     12  C   UNL     1     103.917 138.354 128.798  1.00  0.00     0.046 A 
ATOM     13  C   UNL     1     105.023 140.182 128.054  1.00  0.00     0.087 A 
ATOM     14  C   UNL     1     104.411 135.653 128.447  1.00  0.00     0.009 A 
ATOM     15  C   UNL     1     103.040 137.447 129.395  1.00  0.00     0.027 A 
ATOM     16  C   UNL     1     103.312 136.085 129.203  1.00  0.00     0.003 A 
ATOM     17  H   UNL     1     103.260 140.324 129.233  1.00  0.00     0.166 HD
ENDROOT
BRANCH   6  18
ATOM     18  C   UNL     1     107.703 133.450 125.080  1.00  0.00     0.230 C 
ATOM     19  O   UNL     1     107.202 133.555 123.956  1.00  0.00    -0.274 OA
ATOM     20  N   UNL     1     107.986 132.192 125.625  1.00  0.00    -0.343 N 
BRANCH  20  21
ATOM     21  C   UNL     1     107.644 131.019 124.815  1.00  0.00     0.116 C 
ATOM     22  C   UNL     1     108.782 130.541 123.926  1.00  0.00     0.027 C 
ENDBRANCH  20  21
BRANCH  20  23
ATOM     23  C   UNL     1     108.440 131.955 126.999  1.00  0.00     0.116 C 
ATOM     24  C   UNL     1     108.158 130.543 127.488  1.00  0.00     0.027 C 
ENDBRANCH  20  23
ENDBRANCH   6  18
BRANCH   1  25
ATOM     25  C   UNL     1     109.562 137.587 126.219  1.00  0.00     0.112 C 
BRANCH  25  26
ATOM     26  C   UNL     1     110.482 138.577 125.563  1.00  0.00    -0.019 C 
ATOM     27  C   UNL     1     110.300 139.905 125.571  1.00  0.00     0.005 C 
ENDBRANCH  25  26
ENDBRANCH   1  25
TORSDOF 5
ENDMDL
MODEL 8
REMARK VINA RESULT:    -7.696      2.581      6.827
REMARK INTER + INTRA:         -10.572
REMARK INTER:                 -10.470
REMARK INTRA:                  -0.102
REMARK UNBOUND:                -0.626
REMARK SMILES C=CCN1C[C@H](C(=O)N(CC)CC)C=C2c3cccc4[nH]cc(c34)C[C@H]21
REMARK SMILES IDX 4 1 21 2 26 3 15 4 25 5 6 6 5 7 23 8 16 9 14 10 24 11 20 12
REMARK SMILES IDX 22 13 17 14 19 15 18 16 7 18 8 19 9 20 10 21 11 22 12 23
REMARK SMILES IDX 13 24 3 25 2 26 1 27
REMARK H PARENT 21 17
ROOT
ATOM      1  N   UNL     1     109.362 139.736 126.884  1.00  0.00    -0.291 NA
ATOM      2  N   UNL     1     110.451 134.852 123.506  1.00  0.00    -0.361 N 
ATOM      3  C   UNL     1     109.420 138.338 126.382  1.00  0.00     0.092 C 
ATOM      4  C   UNL     1     108.027 137.645 126.278  1.00  0.00    -0.026 C 
ATOM      5  C   UNL     1     110.390 138.152 125.155  1.00  0.00     0.061 C 
ATOM      6  C   UNL     1     106.989 139.414 127.732  1.00  0.00     0.116 C 
ATOM      7  C   UNL     1     108.436 139.857 128.018  1.00  0.00     0.103 C 
ATOM      8  C   UNL     1     110.273 136.786 124.580  1.00  0.00    -0.020 A 
ATOM      9  C   UNL     1     107.963 136.343 125.565  1.00  0.00    -0.011 A 
ATOM     10  C   UNL     1     106.935 138.166 126.878  1.00  0.00    -0.007 C 
ATOM     11  C   UNL     1     109.102 136.030 124.806  1.00  0.00     0.010 A 
ATOM     12  C   UNL     1     109.219 134.830 124.123  1.00  0.00     0.046 A 
ATOM     13  C   UNL     1     111.100 136.038 123.774  1.00  0.00     0.087 A 
ATOM     14  C   UNL     1     106.943 135.383 125.600  1.00  0.00     0.009 A 
ATOM     15  C   UNL     1     108.205 133.871 124.145  1.00  0.00     0.027 A 
ATOM     16  C   UNL     1     107.063 134.175 124.899  1.00  0.00     0.003 A 
ATOM     17  H   UNL     1     110.819 134.105 122.934  1.00  0.00     0.166 HD
ENDROOT
BRANCH   6  18
ATOM     18  C   UNL     1     106.275 139.186 129.079  1.00  0.00     0.230 C 
ATOM     19  O   UNL     1     106.830 139.472 130.145  1.00  0.00    -0.274 OA
ATOM     20  N   UNL     1     104.967 138.687 129.062  1.00  0.00    -0.343 N 
BRANCH  20  21
ATOM     21  C   UNL     1     104.304 138.500 130.356  1.00  0.00     0.116 C 
ATOM     22  C   UNL     1     103.310 139.602 130.694  1.00  0.00     0.027 C 
ENDBRANCH  20  21
BRANCH  20  23
ATOM     23  C   UNL     1     104.277 138.183 127.871  1.00  0.00     0.116 C 
ATOM     24  C   UNL     1     103.892 136.715 127.978  1.00  0.00     0.027 C 
ENDBRANCH  20  23
ENDBRANCH   6  18
BRANCH   1  25
ATOM     25  C   UNL     1     109.298 140.823 125.910  1.00  0.00     0.112 C 
BRANCH  25  26
ATOM     26  C   UNL     1     110.545 141.617 125.643  1.00  0.00    -0.019 C 
ATOM     27  C   UNL     1     111.098 141.780 124.432  1.00  0.00     0.005 C 
ENDBRANCH  25  26
ENDBRANCH   1  25
TORSDOF 5
ENDMDL
MODEL 9
REMARK VINA RESULT:    -7.667      1.697      2.153
REMARK INTER + INTRA:         -10.534
REMARK INTER:                 -11.213
REMARK INTRA:                   0.678
REMARK UNBOUND:                -0.626
REMARK SMILES C=CCN1C[C@H](C(=O)N(CC)CC)C=C2c3cccc4[nH]cc(c34)C[C@H]21
REMARK SMILES IDX 4 1 21 2 26 3 15 4 25 5 6 6 5 7 23 8 16 9 14 10 24 11 20 12
REMARK SMILES IDX 22 13 17 14 19 15 18 16 7 18 8 19 9 20 10 21 11 22 12 23
REMARK SMILES IDX 13 24 3 25 2 26 1 27
REMARK H PARENT 21 17
ROOT
ATOM      1  N   UNL     1     106.629 134.790 127.436  1.00  0.00    -0.291 NA
ATOM      2  N   UNL     1     109.302 140.106 128.460  1.00  0.00    -0.361 N 
ATOM      3  C   UNL     1     107.623 135.894 127.497  1.00  0.00     0.092 C 
ATOM      4  C   UNL     1     108.238 136.269 126.113  1.00  0.00    -0.026 C 
ATOM      5  C   UNL     1     107.172 137.093 128.414  1.00  0.00     0.061 C 
ATOM      6  C   UNL     1     107.403 134.121 125.110  1.00  0.00     0.116 C 
ATOM      7  C   UNL     1     107.093 133.705 126.560  1.00  0.00     0.103 C 
ATOM      8  C   UNL     1     108.109 138.242 128.296  1.00  0.00    -0.020 A 
ATOM      9  C   UNL     1     109.051 137.510 126.042  1.00  0.00    -0.011 A 
ATOM     10  C   UNL     1     108.102 135.461 125.041  1.00  0.00    -0.007 C 
ATOM     11  C   UNL     1     108.926 138.362 127.150  1.00  0.00     0.010 A 
ATOM     12  C   UNL     1     109.658 139.534 127.258  1.00  0.00     0.046 A 
ATOM     13  C   UNL     1     108.358 139.331 129.098  1.00  0.00     0.087 A 
ATOM     14  C   UNL     1     109.952 137.901 125.041  1.00  0.00     0.009 A 
ATOM     15  C   UNL     1     110.552 139.936 126.264  1.00  0.00     0.027 A 
ATOM     16  C   UNL     1     110.683 139.093 125.152  1.00  0.00     0.003 A 
ATOM     17  H   UNL     1     109.676 140.974 128.815  1.00  0.00     0.166 HD
ENDROOT
BRANCH   6  18
ATOM     18  C   UNL     1     108.265 133.018 124.462  1.00  0.00     0.230 C 
ATOM     19  O   UNL     1     109.127 133.301 123.624  1.00  0.00    -0.274 OA
ATOM     20  N   UNL     1     108.075 131.696 124.878  1.00  0.00    -0.343 N 
BRANCH  20  21
ATOM     21  C   UNL     1     108.922 130.670 124.261  1.00  0.00     0.116 C 
ATOM     22  C   UNL     1     108.536 130.349 122.824  1.00  0.00     0.027 C 
ENDBRANCH  20  21
BRANCH  20  23
ATOM     23  C   UNL     1     106.988 131.238 125.751  1.00  0.00     0.116 C 
ATOM     24  C   UNL     1     107.406 130.115 126.687  1.00  0.00     0.027 C 
ENDBRANCH  20  23
ENDBRANCH   6  18
BRANCH   1  25
ATOM     25  C   UNL     1     105.215 135.133 127.308  1.00  0.00     0.112 C 
BRANCH  25  26
ATOM     26  C   UNL     1     104.794 136.007 126.161  1.00  0.00    -0.019 C 
ATOM     27  C   UNL     1     104.430 137.292 126.277  1.00  0.00     0.005 C 
ENDBRANCH  25  26
ENDBRANCH   1  25
TORSDOF 5
ENDMDL
MODEL 10
REMARK VINA RESULT:    -7.599      3.149      6.130
REMARK INTER + INTRA:         -10.446
REMARK INTER:                  -9.489
REMARK INTRA:                  -0.957
REMARK UNBOUND:                -0.626
REMARK SMILES C=CCN1C[C@H](C(=O)N(CC)CC)C=C2c3cccc4[nH]cc(c34)C[C@H]21
REMARK SMILES IDX 4 1 21 2 26 3 15 4 25 5 6 6 5 7 23 8 16 9 14 10 24 11 20 12
REMARK SMILES IDX 22 13 17 14 19 15 18 16 7 18 8 19 9 20 10 21 11 22 12 23
REMARK SMILES IDX 13 24 3 25 2 26 1 27
REMARK H PARENT 21 17
ROOT
ATOM      1  N   UNL     1     106.386 139.513 127.546  1.00  0.00    -0.291 NA
ATOM      2  N   UNL     1     101.615 140.346 131.151  1.00  0.00    -0.361 N 
ATOM      3  C   UNL     1     105.028 139.443 128.148  1.00  0.00     0.092 C 
ATOM      4  C   UNL     1     104.554 137.992 128.471  1.00  0.00    -0.026 C 
ATOM      5  C   UNL     1     104.779 140.528 129.262  1.00  0.00     0.061 C 
ATOM      6  C   UNL     1     106.362 137.029 127.014  1.00  0.00     0.116 C 
ATOM      7  C   UNL     1     106.569 138.473 126.523  1.00  0.00     0.103 C 
ATOM      8  C   UNL     1     103.484 140.299 129.955  1.00  0.00    -0.020 A 
ATOM      9  C   UNL     1     103.323 137.843 129.289  1.00  0.00    -0.011 A 
ATOM     10  C   UNL     1     105.191 136.914 127.965  1.00  0.00    -0.007 C 
ATOM     11  C   UNL     1     102.895 139.015 129.931  1.00  0.00     0.010 A 
ATOM     12  C   UNL     1     101.736 139.054 130.689  1.00  0.00     0.046 A 
ATOM     13  C   UNL     1     102.675 141.111 130.715  1.00  0.00     0.087 A 
ATOM     14  C   UNL     1     102.522 136.704 129.453  1.00  0.00     0.009 A 
ATOM     15  C   UNL     1     100.936 137.923 130.864  1.00  0.00     0.027 A 
ATOM     16  C   UNL     1     101.355 136.747 130.229  1.00  0.00     0.003 A 
ATOM     17  H   UNL     1     100.860 140.678 131.734  1.00  0.00     0.166 HD
ENDROOT
BRANCH   6  18
ATOM     18  C   UNL     1     106.157 136.122 125.783  1.00  0.00     0.230 C 
ATOM     19  O   UNL     1     105.033 135.958 125.299  1.00  0.00    -0.274 OA
ATOM     20  N   UNL     1     107.283 135.525 125.204  1.00  0.00    -0.343 N 
BRANCH  20  21
ATOM     21  C   UNL     1     107.063 134.685 124.023  1.00  0.00     0.116 C 
ATOM     22  C   UNL     1     107.840 133.377 124.055  1.00  0.00     0.027 C 
ENDBRANCH  20  21
BRANCH  20  23
ATOM     23  C   UNL     1     108.630 135.537 125.782  1.00  0.00     0.116 C 
ATOM     24  C   UNL     1     109.521 136.626 125.204  1.00  0.00     0.027 C 
ENDBRANCH  20  23
ENDBRANCH   6  18
BRANCH   1  25
ATOM     25  C   UNL     1     107.529 139.725 128.430  1.00  0.00     0.112 C 
BRANCH  25  26
ATOM     26  C   UNL     1     108.898 139.818 127.819  1.00  0.00    -0.019 C 
ATOM     27  C   UNL     1     109.925 139.014 128.129  1.00  0.00     0.005 C 
ENDBRANCH  25  26
ENDBRANCH   1  25
TORSDOF 5
ENDMDL
MODEL 11
REMARK VINA RESULT:    -7.551      3.381      7.248
REMARK INTER + INTRA:         -10.384
REMARK INTER:                  -9.673
REMARK INTRA:                  -0.711
REMARK UNBOUND:                -0.626
REMARK SMILES C=CCN1C[C@H](C(=O)N(CC)CC)C=C2c3cccc4[nH]cc(c34)C[C@H]21
REMARK SMILES IDX 4 1 21 2 26 3 15 4 25 5 6 6 5 7 23 8 16 9 14 10 24 11 20 12
REMARK SMILES IDX 22 13 17 14 19 15 18 16 7 18 8 19 9 20 10 21 11 22 12 23
REMARK SMILES IDX 13 24 3 25 2 26 1 27
REMARK H PARENT 21 17
ROOT
ATOM      1  N   UNL     1     104.989 136.300 127.953  1.00  0.00    -0.291 NA
ATOM      2  N   UNL     1      99.829 137.452 130.868  1.00  0.00    -0.361 N 
ATOM      3  C   UNL     1     103.979 136.856 128.892  1.00  0.00     0.092 C 
ATOM      4  C   UNL     1     103.884 138.413 128.869  1.00  0.00    -0.026 C 
ATOM      5  C   UNL     1     102.615 136.068 128.884  1.00  0.00     0.061 C 
ATOM      6  C   UNL     1     106.084 138.574 127.664  1.00  0.00     0.116 C 
ATOM      7  C   UNL     1     106.236 137.077 127.991  1.00  0.00     0.103 C 
ATOM      8  C   UNL     1     101.585 136.769 129.697  1.00  0.00    -0.020 A 
ATOM      9  C   UNL     1     102.744 139.037 129.590  1.00  0.00    -0.011 A 
ATOM     10  C   UNL     1     104.837 139.168 128.284  1.00  0.00    -0.007 C 
ATOM     11  C   UNL     1     101.719 138.151 129.955  1.00  0.00     0.010 A 
ATOM     12  C   UNL     1     100.613 138.569 130.677  1.00  0.00     0.046 A 
ATOM     13  C   UNL     1     100.408 136.352 130.273  1.00  0.00     0.087 A 
ATOM     14  C   UNL     1     102.597 140.373 129.988  1.00  0.00     0.009 A 
ATOM     15  C   UNL     1     100.453 139.898 131.071  1.00  0.00     0.027 A 
ATOM     16  C   UNL     1     101.471 140.792 130.711  1.00  0.00     0.003 A 
ATOM     17  H   UNL     1      98.950 137.447 131.367  1.00  0.00     0.166 HD
ENDROOT
BRANCH   6  18
ATOM     18  C   UNL     1     107.345 139.310 128.159  1.00  0.00     0.230 C 
ATOM     19  O   UNL     1     107.377 139.824 129.282  1.00  0.00    -0.274 OA
ATOM     20  N   UNL     1     108.466 139.345 127.322  1.00  0.00    -0.343 N 
BRANCH  20  21
ATOM     21  C   UNL     1     109.658 140.033 127.826  1.00  0.00     0.116 C 
ATOM     22  C   UNL     1     110.241 141.036 126.841  1.00  0.00     0.027 C 
ENDBRANCH  20  21
BRANCH  20  23
ATOM     23  C   UNL     1     108.484 138.898 125.925  1.00  0.00     0.116 C 
ATOM     24  C   UNL     1     109.231 137.588 125.725  1.00  0.00     0.027 C 
ENDBRANCH  20  23
ENDBRANCH   6  18
BRANCH   1  25
ATOM     25  C   UNL     1     104.550 135.891 126.621  1.00  0.00     0.112 C 
BRANCH  25  26
ATOM     26  C   UNL     1     105.331 136.374 125.433  1.00  0.00    -0.019 C 
ATOM     27  C   UNL     1     106.167 135.612 124.711  1.00  0.00     0.005 C 
ENDBRANCH  25  26
ENDBRANCH   1  25
TORSDOF 5
ENDMDL
MODEL 12
REMARK VINA RESULT:    -7.149      2.335      6.824
REMARK INTER + INTRA:          -9.865
REMARK INTER:                  -9.520
REMARK INTRA:                  -0.345
REMARK UNBOUND:                -0.626
REMARK SMILES C=CCN1C[C@H](C(=O)N(CC)CC)C=C2c3cccc4[nH]cc(c34)C[C@H]21
REMARK SMILES IDX 4 1 21 2 26 3 15 4 25 5 6 6 5 7 23 8 16 9 14 10 24 11 20 12
REMARK SMILES IDX 22 13 17 14 19 15 18 16 7 18 8 19 9 20 10 21 11 22 12 23
REMARK SMILES IDX 13 24 3 25 2 26 1 27
REMARK H PARENT 21 17
ROOT
ATOM      1  N   UNL     1     107.074 135.869 126.449  1.00  0.00    -0.291 NA
ATOM      2  N   UNL     1     101.909 136.655 129.475  1.00  0.00    -0.361 N 
ATOM      3  C   UNL     1     106.055 136.333 127.427  1.00  0.00     0.092 C 
ATOM      4  C   UNL     1     105.898 137.883 127.491  1.00  0.00    -0.026 C 
ATOM      5  C   UNL     1     104.723 135.493 127.390  1.00  0.00     0.061 C 
ATOM      6  C   UNL     1     108.076 138.198 126.275  1.00  0.00     0.116 C 
ATOM      7  C   UNL     1     108.290 136.692 126.517  1.00  0.00     0.103 C 
ATOM      8  C   UNL     1     103.677 136.107 128.250  1.00  0.00    -0.020 A 
ATOM      9  C   UNL     1     104.745 138.422 128.257  1.00  0.00    -0.011 A 
ATOM     10  C   UNL     1     106.815 138.707 126.939  1.00  0.00    -0.007 C 
ATOM     11  C   UNL     1     103.759 137.477 128.582  1.00  0.00     0.010 A 
ATOM     12  C   UNL     1     102.646 137.811 129.337  1.00  0.00     0.046 A 
ATOM     13  C   UNL     1     102.524 135.613 128.815  1.00  0.00     0.087 A 
ATOM     14  C   UNL     1     104.550 139.727 128.730  1.00  0.00     0.009 A 
ATOM     15  C   UNL     1     102.439 139.109 129.806  1.00  0.00     0.027 A 
ATOM     16  C   UNL     1     103.417 140.061 129.485  1.00  0.00     0.003 A 
ATOM     17  H   UNL     1     101.038 136.587 129.982  1.00  0.00     0.166 HD
ENDROOT
BRANCH   6  18
ATOM     18  C   UNL     1     109.314 138.955 126.797  1.00  0.00     0.230 C 
ATOM     19  O   UNL     1     110.216 138.357 127.393  1.00  0.00    -0.274 OA
ATOM     20  N   UNL     1     109.408 140.328 126.544  1.00  0.00    -0.343 N 
BRANCH  20  21
ATOM     21  C   UNL     1     110.605 141.019 127.034  1.00  0.00     0.116 C 
ATOM     22  C   UNL     1     111.446 141.634 125.925  1.00  0.00     0.027 C 
ENDBRANCH  20  21
BRANCH  20  23
ATOM     23  C   UNL     1     108.335 141.154 125.980  1.00  0.00     0.116 C 
ATOM     24  C   UNL     1     107.614 141.992 127.024  1.00  0.00     0.027 C 
ENDBRANCH  20  23
ENDBRANCH   6  18
BRANCH   1  25
ATOM     25  C   UNL     1     106.635 135.517 125.102  1.00  0.00     0.112 C 
BRANCH  25  26
ATOM     26  C   UNL     1     107.326 134.382 124.400  1.00  0.00    -0.019 C 
ATOM     27  C   UNL     1     107.841 133.308 125.015  1.00  0.00     0.005 C 
ENDBRANCH  25  26
ENDBRANCH   1  25
TORSDOF 5
ENDMDL
MODEL 13
REMARK VINA RESULT:    -7.121      3.723      6.689
REMARK INTER + INTRA:          -9.829
REMARK INTER:                  -9.133
REMARK INTRA:                  -0.695
REMARK UNBOUND:                -0.626
REMARK SMILES C=CCN1C[C@H](C(=O)N(CC)CC)C=C2c3cccc4[nH]cc(c34)C[C@H]21
REMARK SMILES IDX 4 1 21 2 26 3 15 4 25 5 6 6 5 7 23 8 16 9 14 10 24 11 20 12
REMARK SMILES IDX 22 13 17 14 19 15 18 16 7 18 8 19 9 20 10 21 11 22 12 23
REMARK SMILES IDX 13 24 3 25 2 26 1 27
REMARK H PARENT 21 17
ROOT
ATOM      1  N   UNL     1     109.024 131.097 123.122  1.00  0.00    -0.291 NA
ATOM      2  N   UNL     1     106.743 134.455 127.592  1.00  0.00    -0.361 N 
ATOM      3  C   UNL     1     108.863 132.096 124.212  1.00  0.00     0.092 C 
ATOM      4  C   UNL     1     109.207 133.557 123.786  1.00  0.00    -0.026 C 
ATOM      5  C   UNL     1     107.547 131.901 125.053  1.00  0.00     0.061 C 
ATOM      6  C   UNL     1     110.381 132.728 121.724  1.00  0.00     0.116 C 
ATOM      7  C   UNL     1     110.260 131.332 122.362  1.00  0.00     0.103 C 
ATOM      8  C   UNL     1     107.344 133.026 126.003  1.00  0.00    -0.020 A 
ATOM      9  C   UNL     1     108.848 134.645 124.731  1.00  0.00    -0.011 A 
ATOM     10  C   UNL     1     109.874 133.819 122.641  1.00  0.00    -0.007 C 
ATOM     11  C   UNL     1     107.972 134.268 125.761  1.00  0.00     0.010 A 
ATOM     12  C   UNL     1     107.581 135.155 126.751  1.00  0.00     0.046 A 
ATOM     13  C   UNL     1     106.588 133.160 127.145  1.00  0.00     0.087 A 
ATOM     14  C   UNL     1     109.311 135.968 124.748  1.00  0.00     0.009 A 
ATOM     15  C   UNL     1     108.031 136.476 126.773  1.00  0.00     0.027 A 
ATOM     16  C   UNL     1     108.905 136.863 125.748  1.00  0.00     0.003 A 
ATOM     17  H   UNL     1     106.300 134.842 128.413  1.00  0.00     0.166 HD
ENDROOT
BRANCH   6  18
ATOM     18  C   UNL     1     111.860 132.966 121.355  1.00  0.00     0.230 C 
ATOM     19  O   UNL     1     112.571 133.706 122.042  1.00  0.00    -0.274 OA
ATOM     20  N   UNL     1     112.385 132.292 120.247  1.00  0.00    -0.343 N 
BRANCH  20  21
ATOM     21  C   UNL     1     113.798 132.521 119.931  1.00  0.00     0.116 C 
ATOM     22  C   UNL     1     114.045 132.863 118.469  1.00  0.00     0.027 C 
ENDBRANCH  20  21
BRANCH  20  23
ATOM     23  C   UNL     1     111.596 131.513 119.287  1.00  0.00     0.116 C 
ATOM     24  C   UNL     1     111.861 130.017 119.367  1.00  0.00     0.027 C 
ENDBRANCH  20  23
ENDBRANCH   6  18
BRANCH   1  25
ATOM     25  C   UNL     1     107.855 130.752 122.318  1.00  0.00     0.112 C 
BRANCH  25  26
ATOM     26  C   UNL     1     108.067 130.006 121.031  1.00  0.00    -0.019 C 
ATOM     27  C   UNL     1     107.217 130.018 119.995  1.00  0.00     0.005 C 
ENDBRANCH  25  26
ENDBRANCH   1  25
TORSDOF 5
ENDMDL
MODEL 14
REMARK VINA RESULT:    -6.999      2.678      5.292
REMARK INTER + INTRA:          -9.670
REMARK INTER:                  -9.562
REMARK INTRA:                  -0.109
REMARK UNBOUND:                -0.626
REMARK SMILES C=CCN1C[C@H](C(=O)N(CC)CC)C=C2c3cccc4[nH]cc(c34)C[C@H]21
REMARK SMILES IDX 4 1 21 2 26 3 15 4 25 5 6 6 5 7 23 8 16 9 14 10 24 11 20 12
REMARK SMILES IDX 22 13 17 14 19 15 18 16 7 18 8 19 9 20 10 21 11 22 12 23
REMARK SMILES IDX 13 24 3 25 2 26 1 27
REMARK H PARENT 21 17
ROOT
ATOM      1  N   UNL     1     107.562 138.958 126.555  1.00  0.00    -0.291 NA
ATOM      2  N   UNL     1     103.447 140.889 130.528  1.00  0.00    -0.361 N 
ATOM      3  C   UNL     1     106.337 139.080 127.388  1.00  0.00     0.092 C 
ATOM      4  C   UNL     1     106.019 137.809 128.235  1.00  0.00    -0.026 C 
ATOM      5  C   UNL     1     106.217 140.465 128.128  1.00  0.00     0.061 C 
ATOM      6  C   UNL     1     107.603 136.435 126.849  1.00  0.00     0.116 C 
ATOM      7  C   UNL     1     107.631 137.645 125.898  1.00  0.00     0.103 C 
ATOM      8  C   UNL     1     105.079 140.466 129.085  1.00  0.00    -0.020 A 
ATOM      9  C   UNL     1     104.960 137.926 129.270  1.00  0.00    -0.011 A 
ATOM     10  C   UNL     1     106.624 136.628 127.987  1.00  0.00    -0.007 C 
ATOM     11  C   UNL     1     104.576 139.241 129.576  1.00  0.00     0.010 A 
ATOM     12  C   UNL     1     103.566 139.517 130.483  1.00  0.00     0.046 A 
ATOM     13  C   UNL     1     104.364 141.477 129.684  1.00  0.00     0.087 A 
ATOM     14  C   UNL     1     104.273 136.897 129.930  1.00  0.00     0.009 A 
ATOM     15  C   UNL     1     102.882 138.500 131.151  1.00  0.00     0.027 A 
ATOM     16  C   UNL     1     103.258 137.183 130.854  1.00  0.00     0.003 A 
ATOM     17  H   UNL     1     102.785 141.389 131.105  1.00  0.00     0.166 HD
ENDROOT
BRANCH   6  18
ATOM     18  C   UNL     1     107.246 135.179 126.027  1.00  0.00     0.230 C 
ATOM     19  O   UNL     1     106.234 134.520 126.288  1.00  0.00    -0.274 OA
ATOM     20  N   UNL     1     108.073 134.830 124.954  1.00  0.00    -0.343 N 
BRANCH  20  21
ATOM     21  C   UNL     1     107.699 133.644 124.177  1.00  0.00     0.116 C 
ATOM     22  C   UNL     1     108.060 132.333 124.860  1.00  0.00     0.027 C 
ENDBRANCH  20  21
BRANCH  20  23
ATOM     23  C   UNL     1     109.366 135.454 124.653  1.00  0.00     0.116 C 
ATOM     24  C   UNL     1     110.013 134.911 123.388  1.00  0.00     0.027 C 
ENDBRANCH  20  23
ENDBRANCH   6  18
BRANCH   1  25
ATOM     25  C   UNL     1     108.826 139.447 127.100  1.00  0.00     0.112 C 
BRANCH  25  26
ATOM     26  C   UNL     1     110.102 139.043 126.419  1.00  0.00    -0.019 C 
ATOM     27  C   UNL     1     110.710 139.754 125.458  1.00  0.00     0.005 C 
ENDBRANCH  25  26
ENDBRANCH   1  25
TORSDOF 5
ENDMDL
MODEL 15
REMARK VINA RESULT:    -6.800      3.021      7.607
REMARK INTER + INTRA:          -9.414
REMARK INTER:                  -8.465
REMARK INTRA:                  -0.949
REMARK UNBOUND:                -0.626
REMARK SMILES C=CCN1C[C@H](C(=O)N(CC)CC)C=C2c3cccc4[nH]cc(c34)C[C@H]21
REMARK SMILES IDX 4 1 21 2 26 3 15 4 25 5 6 6 5 7 23 8 16 9 14 10 24 11 20 12
REMARK SMILES IDX 22 13 17 14 19 15 18 16 7 18 8 19 9 20 10 21 11 22 12 23
REMARK SMILES IDX 13 24 3 25 2 26 1 27
REMARK H PARENT 21 17
ROOT
ATOM      1  N   UNL     1     107.627 131.147 124.436  1.00  0.00    -0.291 NA
ATOM      2  N   UNL     1     111.421 129.988 119.885  1.00  0.00    -0.361 N 
ATOM      3  C   UNL     1     108.444 131.266 123.200  1.00  0.00     0.092 C 
ATOM      4  C   UNL     1     109.386 132.509 123.181  1.00  0.00    -0.026 C 
ATOM      5  C   UNL     1     109.072 129.901 122.730  1.00  0.00     0.061 C 
ATOM      6  C   UNL     1     108.118 133.555 125.083  1.00  0.00     0.116 C 
ATOM      7  C   UNL     1     107.075 132.449 124.837  1.00  0.00     0.103 C 
ATOM      8  C   UNL     1     110.022 130.106 121.603  1.00  0.00    -0.020 A 
ATOM      9  C   UNL     1     110.405 132.577 122.102  1.00  0.00    -0.011 A 
ATOM     10  C   UNL     1     109.233 133.522 124.061  1.00  0.00    -0.007 C 
ATOM     11  C   UNL     1     110.606 131.376 121.404  1.00  0.00     0.010 A 
ATOM     12  C   UNL     1     111.485 131.289 120.336  1.00  0.00     0.046 A 
ATOM     13  C   UNL     1     110.538 129.258 120.651  1.00  0.00     0.087 A 
ATOM     14  C   UNL     1     111.141 133.690 121.672  1.00  0.00     0.009 A 
ATOM     15  C   UNL     1     112.228 132.389 119.905  1.00  0.00     0.027 A 
ATOM     16  C   UNL     1     112.036 133.592 120.597  1.00  0.00     0.003 A 
ATOM     17  H   UNL     1     111.955 129.623 119.109  1.00  0.00     0.166 HD
ENDROOT
BRANCH   6  18
ATOM     18  C   UNL     1     107.395 134.917 125.061  1.00  0.00     0.230 C 
ATOM     19  O   UNL     1     106.953 135.381 124.005  1.00  0.00    -0.274 OA
ATOM     20  N   UNL     1     107.218 135.595 126.272  1.00  0.00    -0.343 N 
BRANCH  20  21
ATOM     21  C   UNL     1     106.510 136.878 126.225  1.00  0.00     0.116 C 
ATOM     22  C   UNL     1     107.439 138.083 126.204  1.00  0.00     0.027 C 
ENDBRANCH  20  21
BRANCH  20  23
ATOM     23  C   UNL     1     107.827 135.207 127.549  1.00  0.00     0.116 C 
ATOM     24  C   UNL     1     106.849 134.534 128.499  1.00  0.00     0.027 C 
ENDBRANCH  20  23
ENDBRANCH   6  18
BRANCH   1  25
ATOM     25  C   UNL     1     108.137 130.324 125.530  1.00  0.00     0.112 C 
BRANCH  25  26
ATOM     26  C   UNL     1     107.698 130.645 126.930  1.00  0.00    -0.019 C 
ATOM     27  C   UNL     1     108.502 131.129 127.887  1.00  0.00     0.005 C 
ENDBRANCH  25  26
ENDBRANCH   1  25
TORSDOF 5
ENDMDL
MODEL 16
REMARK VINA RESULT:    -6.791      2.363      6.710
REMARK INTER + INTRA:          -9.402
REMARK INTER:                  -9.657
REMARK INTRA:                   0.255
REMARK UNBOUND:                -0.626
REMARK SMILES C=CCN1C[C@H](C(=O)N(CC)CC)C=C2c3cccc4[nH]cc(c34)C[C@H]21
REMARK SMILES IDX 4 1 21 2 26 3 15 4 25 5 6 6 5 7 23 8 16 9 14 10 24 11 20 12
REMARK SMILES IDX 22 13 17 14 19 15 18 16 7 18 8 19 9 20 10 21 11 22 12 23
REMARK SMILES IDX 13 24 3 25 2 26 1 27
REMARK H PARENT 21 17
ROOT
ATOM      1  N   UNL     1     106.522 133.613 126.288  1.00  0.00    -0.291 NA
ATOM      2  N   UNL     1     109.809 130.972 121.966  1.00  0.00    -0.361 N 
ATOM      3  C   UNL     1     107.303 133.362 125.048  1.00  0.00     0.092 C 
ATOM      4  C   UNL     1     108.498 134.343 124.844  1.00  0.00    -0.026 C 
ATOM      5  C   UNL     1     107.595 131.836 124.789  1.00  0.00     0.061 C 
ATOM      6  C   UNL     1     107.560 135.915 126.567  1.00  0.00     0.116 C 
ATOM      7  C   UNL     1     106.288 135.050 126.488  1.00  0.00     0.103 C 
ATOM      8  C   UNL     1     108.528 131.654 123.646  1.00  0.00    -0.020 A 
ATOM      9  C   UNL     1     109.471 134.020 123.769  1.00  0.00    -0.011 A 
ATOM     10  C   UNL     1     108.605 135.481 125.563  1.00  0.00    -0.007 C 
ATOM     11  C   UNL     1     109.375 132.716 123.258  1.00  0.00     0.010 A 
ATOM     12  C   UNL     1     110.177 132.277 122.217  1.00  0.00     0.046 A 
ATOM     13  C   UNL     1     108.810 130.582 122.831  1.00  0.00     0.087 A 
ATOM     14  C   UNL     1     110.423 134.863 123.177  1.00  0.00     0.009 A 
ATOM     15  C   UNL     1     111.132 133.105 121.626  1.00  0.00     0.027 A 
ATOM     16  C   UNL     1     111.238 134.409 122.130  1.00  0.00     0.003 A 
ATOM     17  H   UNL     1     110.222 130.387 121.254  1.00  0.00     0.166 HD
ENDROOT
BRANCH   6  18
ATOM     18  C   UNL     1     107.160 137.387 126.340  1.00  0.00     0.230 C 
ATOM     19  O   UNL     1     105.996 137.690 126.061  1.00  0.00    -0.274 OA
ATOM     20  N   UNL     1     108.140 138.373 126.497  1.00  0.00    -0.343 N 
BRANCH  20  21
ATOM     21  C   UNL     1     107.729 139.766 126.296  1.00  0.00     0.116 C 
ATOM     22  C   UNL     1     107.562 140.543 127.594  1.00  0.00     0.027 C 
ENDBRANCH  20  21
BRANCH  20  23
ATOM     23  C   UNL     1     109.572 138.113 126.681  1.00  0.00     0.116 C 
ATOM     24  C   UNL     1     110.427 138.633 125.535  1.00  0.00     0.027 C 
ENDBRANCH  20  23
ENDBRANCH   6  18
BRANCH   1  25
ATOM     25  C   UNL     1     106.870 132.865 127.493  1.00  0.00     0.112 C 
BRANCH  25  26
ATOM     26  C   UNL     1     108.228 132.228 127.570  1.00  0.00    -0.019 C 
ATOM     27  C   UNL     1     108.447 130.930 127.831  1.00  0.00     0.005 C 
ENDBRANCH  25  26
ENDBRANCH   1  25
TORSDOF 5
ENDMDL
MODEL 17
REMARK VINA RESULT:    -6.737      2.319      5.436
REMARK INTER + INTRA:          -9.333
REMARK INTER:                  -9.770
REMARK INTRA:                   0.438
REMARK UNBOUND:                -0.626
REMARK SMILES C=CCN1C[C@H](C(=O)N(CC)CC)C=C2c3cccc4[nH]cc(c34)C[C@H]21
REMARK SMILES IDX 4 1 21 2 26 3 15 4 25 5 6 6 5 7 23 8 16 9 14 10 24 11 20 12
REMARK SMILES IDX 22 13 17 14 19 15 18 16 7 18 8 19 9 20 10 21 11 22 12 23
REMARK SMILES IDX 13 24 3 25 2 26 1 27
REMARK H PARENT 21 17
ROOT
ATOM      1  N   UNL     1     106.301 134.869 126.723  1.00  0.00    -0.291 NA
ATOM      2  N   UNL     1     110.949 138.217 124.815  1.00  0.00    -0.361 N 
ATOM      3  C   UNL     1     107.179 136.017 126.374  1.00  0.00     0.092 C 
ATOM      4  C   UNL     1     107.435 137.000 127.559  1.00  0.00    -0.026 C 
ATOM      5  C   UNL     1     108.435 135.609 125.516  1.00  0.00     0.061 C 
ATOM      6  C   UNL     1     105.512 136.018 128.847  1.00  0.00     0.116 C 
ATOM      7  C   UNL     1     105.153 135.303 127.532  1.00  0.00     0.103 C 
ATOM      8  C   UNL     1     109.369 136.755 125.353  1.00  0.00    -0.020 A 
ATOM      9  C   UNL     1     108.484 138.035 127.372  1.00  0.00    -0.011 A 
ATOM     10  C   UNL     1     106.682 136.964 128.679  1.00  0.00    -0.007 C 
ATOM     11  C   UNL     1     109.333 137.824 126.274  1.00  0.00     0.010 A 
ATOM     12  C   UNL     1     110.329 138.725 125.936  1.00  0.00     0.046 A 
ATOM     13  C   UNL     1     110.377 137.017 124.453  1.00  0.00     0.087 A 
ATOM     14  C   UNL     1     108.693 139.204 128.118  1.00  0.00     0.009 A 
ATOM     15  C   UNL     1     110.551 139.888 126.676  1.00  0.00     0.027 A 
ATOM     16  C   UNL     1     109.710 140.107 127.776  1.00  0.00     0.003 A 
ATOM     17  H   UNL     1     111.719 138.661 124.335  1.00  0.00     0.166 HD
ENDROOT
BRANCH   6  18
ATOM     18  C   UNL     1     104.264 136.775 129.344  1.00  0.00     0.230 C 
ATOM     19  O   UNL     1     103.667 136.409 130.362  1.00  0.00    -0.274 OA
ATOM     20  N   UNL     1     103.849 137.909 128.638  1.00  0.00    -0.343 N 
BRANCH  20  21
ATOM     21  C   UNL     1     102.672 138.622 129.145  1.00  0.00     0.116 C 
ATOM     22  C   UNL     1     102.991 139.601 130.265  1.00  0.00     0.027 C 
ENDBRANCH  20  21
BRANCH  20  23
ATOM     23  C   UNL     1     104.394 138.340 127.346  1.00  0.00     0.116 C 
ATOM     24  C   UNL     1     105.072 139.700 127.405  1.00  0.00     0.027 C 
ENDBRANCH  20  23
ENDBRANCH   6  18
BRANCH   1  25
ATOM     25  C   UNL     1     106.927 133.620 127.148  1.00  0.00     0.112 C 
BRANCH  25  26
ATOM     26  C   UNL     1     107.289 132.608 126.098  1.00  0.00    -0.019 C 
ATOM     27  C   UNL     1     107.790 131.392 126.355  1.00  0.00     0.005 C 
ENDBRANCH  25  26
ENDBRANCH   1  25
TORSDOF 5
ENDMDL
MODEL 18
REMARK VINA RESULT:    -6.437      4.953      8.639
REMARK INTER + INTRA:          -8.944
REMARK INTER:                  -8.850
REMARK INTRA:                  -0.095
REMARK UNBOUND:                -0.626
REMARK SMILES C=CCN1C[C@H](C(=O)N(CC)CC)C=C2c3cccc4[nH]cc(c34)C[C@H]21
REMARK SMILES IDX 4 1 21 2 26 3 15 4 25 5 6 6 5 7 23 8 16 9 14 10 24 11 20 12
REMARK SMILES IDX 22 13 17 14 19 15 18 16 7 18 8 19 9 20 10 21 11 22 12 23
REMARK SMILES IDX 13 24 3 25 2 26 1 27
REMARK H PARENT 21 17
ROOT
ATOM      1  N   UNL     1     110.671 130.345 121.321  1.00  0.00    -0.291 NA
ATOM      2  N   UNL     1     106.924 132.369 125.602  1.00  0.00    -0.361 N 
ATOM      3  C   UNL     1     110.103 131.071 122.488  1.00  0.00     0.092 C 
ATOM      4  C   UNL     1     110.247 132.622 122.398  1.00  0.00    -0.026 C 
ATOM      5  C   UNL     1     108.702 130.520 122.949  1.00  0.00     0.061 C 
ATOM      6  C   UNL     1     111.956 132.403 120.569  1.00  0.00     0.116 C 
ATOM      7  C   UNL     1     111.971 130.905 120.926  1.00  0.00     0.103 C 
ATOM      8  C   UNL     1     108.099 131.391 123.993  1.00  0.00    -0.020 A 
ATOM      9  C   UNL     1     109.501 133.435 123.394  1.00  0.00    -0.011 A 
ATOM     10  C   UNL     1     111.074 133.202 121.503  1.00  0.00    -0.007 C 
ATOM     11  C   UNL     1     108.518 132.735 124.110  1.00  0.00     0.010 A 
ATOM     12  C   UNL     1     107.771 133.338 125.109  1.00  0.00     0.046 A 
ATOM     13  C   UNL     1     107.112 131.182 124.928  1.00  0.00     0.087 A 
ATOM     14  C   UNL     1     109.694 134.781 123.734  1.00  0.00     0.009 A 
ATOM     15  C   UNL     1     107.950 134.680 125.451  1.00  0.00     0.027 A 
ATOM     16  C   UNL     1     108.928 135.388 124.740  1.00  0.00     0.003 A 
ATOM     17  H   UNL     1     106.257 132.515 126.346  1.00  0.00     0.166 HD
ENDROOT
BRANCH   6  18
ATOM     18  C   UNL     1     113.407 132.925 120.606  1.00  0.00     0.230 C 
ATOM     19  O   UNL     1     113.942 133.229 121.677  1.00  0.00    -0.274 OA
ATOM     20  N   UNL     1     114.115 133.005 119.402  1.00  0.00    -0.343 N 
BRANCH  20  21
ATOM     21  C   UNL     1     115.499 133.485 119.469  1.00  0.00     0.116 C 
ATOM     22  C   UNL     1     115.651 134.797 120.225  1.00  0.00     0.027 C 
ENDBRANCH  20  21
BRANCH  20  23
ATOM     23  C   UNL     1     113.532 132.810 118.070  1.00  0.00     0.116 C 
ATOM     24  C   UNL     1     113.642 131.377 117.573  1.00  0.00     0.027 C 
ENDBRANCH  20  23
ENDBRANCH   6  18
BRANCH   1  25
ATOM     25  C   UNL     1     109.780 130.000 120.217  1.00  0.00     0.112 C 
BRANCH  25  26
ATOM     26  C   UNL     1     110.362 129.892 118.836  1.00  0.00    -0.019 C 
ATOM     27  C   UNL     1     111.029 128.826 118.373  1.00  0.00     0.005 C 
ENDBRANCH  25  26
ENDBRANCH   1  25
TORSDOF 5
ENDMDL
