MODEL 1
REMARK VINA RESULT:    -9.263      0.000      0.000
REMARK INTER + INTRA:         -12.625
REMARK INTER:                 -11.971
REMARK INTRA:                  -0.654
REMARK UNBOUND:                -0.654
REMARK SMILES C=CCN1C[C@H](C(=O)N(CC)CC)C=C2c3cccc4[nH]cc(c34)C[C@H]21
REMARK SMILES IDX 4 1 21 2 26 3 15 4 25 5 6 6 5 7 23 8 16 9 14 10 24 11 20 12
REMARK SMILES IDX 22 13 17 14 19 15 18 16 7 18 8 19 9 20 10 21 11 22 12 23
REMARK SMILES IDX 13 24 3 25 2 26 1 27
REMARK H PARENT 21 17
ROOT
ATOM      1  N   UNL     1     -10.380 -19.102  20.376  1.00  0.00    -0.291 NA
ATOM      2  N   UNL     1      -5.666 -21.026  23.623  1.00  0.00    -0.361 N 
ATOM      3  C   UNL     1      -9.384 -19.292  21.464  1.00  0.00     0.092 C 
ATOM      4  C   UNL     1     -10.015 -19.669  22.840  1.00  0.00    -0.026 C 
ATOM      5  C   UNL     1      -8.120 -20.120  21.020  1.00  0.00     0.061 C 
ATOM      6  C   UNL     1     -12.288 -18.946  22.046  1.00  0.00     0.116 C 
ATOM      7  C   UNL     1     -11.542 -18.335  20.846  1.00  0.00     0.103 C 
ATOM      8  C   UNL     1      -7.249 -20.437  22.183  1.00  0.00    -0.020 A 
ATOM      9  C   UNL     1      -9.091 -20.110  23.916  1.00  0.00    -0.011 A 
ATOM     10  C   UNL     1     -11.337 -19.526  23.071  1.00  0.00    -0.007 C 
ATOM     11  C   UNL     1      -7.793 -20.427  23.487  1.00  0.00     0.010 A 
ATOM     12  C   UNL     1      -6.800 -20.806  24.375  1.00  0.00     0.046 A 
ATOM     13  C   UNL     1      -5.929 -20.808  22.288  1.00  0.00     0.087 A 
ATOM     14  C   UNL     1      -9.340 -20.197  25.293  1.00  0.00     0.009 A 
ATOM     15  C   UNL     1      -7.040 -20.904  25.747  1.00  0.00     0.027 A 
ATOM     16  C   UNL     1      -8.334 -20.590  26.186  1.00  0.00     0.003 A 
ATOM     17  H   UNL     1      -4.774 -21.313  24.000  1.00  0.00     0.166 HD
ENDROOT
BRANCH   6  18
ATOM     18  C   UNL     1     -13.171 -17.850  22.678  1.00  0.00     0.230 C 
ATOM     19  O   UNL     1     -12.716 -17.089  23.538  1.00  0.00    -0.274 OA
ATOM     20  N   UNL     1     -14.487 -17.714  22.223  1.00  0.00    -0.343 N 
BRANCH  20  21
ATOM     21  C   UNL     1     -15.298 -16.652  22.825  1.00  0.00     0.116 C 
ATOM     22  C   UNL     1     -15.860 -15.667  21.810  1.00  0.00     0.027 C 
ENDBRANCH  20  21
BRANCH  20  23
ATOM     23  C   UNL     1     -15.165 -18.651  21.320  1.00  0.00     0.116 C 
ATOM     24  C   UNL     1     -14.926 -18.344  19.850  1.00  0.00     0.027 C 
ENDBRANCH  20  23
ENDBRANCH   6  18
BRANCH   1  25
ATOM     25  C   UNL     1     -10.691 -20.238  19.513  1.00  0.00     0.112 C 
BRANCH  25  26
ATOM     26  C   UNL     1     -11.915 -20.161  18.645  1.00  0.00    -0.019 C 
ATOM     27  C   UNL     1     -11.945 -19.620  17.418  1.00  0.00     0.005 C 
ENDBRANCH  25  26
ENDBRANCH   1  25
TORSDOF 5
ENDMDL
MODEL 2
REMARK VINA RESULT:    -8.954      1.898      4.030
REMARK INTER + INTRA:         -12.226
REMARK INTER:                 -11.401
REMARK INTRA:                  -0.825
REMARK UNBOUND:                -0.654
REMARK SMILES C=CCN1C[C@H](C(=O)N(CC)CC)C=C2c3cccc4[nH]cc(c34)C[C@H]21
REMARK SMILES IDX 4 1 21 2 26 3 15 4 25 5 6 6 5 7 23 8 16 9 14 10 24 11 20 12
REMARK SMILES IDX 22 13 17 14 19 15 18 16 7 18 8 19 9 20 10 21 11 22 12 23
REMARK SMILES IDX 13 24 3 25 2 26 1 27
REMARK H PARENT 21 17
ROOT
ATOM      1  N   UNL     1     -12.322 -18.940  22.875  1.00  0.00    -0.291 NA
ATOM      2  N   UNL     1      -7.320 -21.010  25.550  1.00  0.00    -0.361 N 
ATOM      3  C   UNL     1     -11.045 -19.652  23.149  1.00  0.00     0.092 C 
ATOM      4  C   UNL     1      -9.923 -19.362  22.105  1.00  0.00    -0.026 C 
ATOM      5  C   UNL     1     -10.620 -19.617  24.665  1.00  0.00     0.061 C 
ATOM      6  C   UNL     1     -11.604 -18.410  20.497  1.00  0.00     0.116 C 
ATOM      7  C   UNL     1     -12.665 -18.994  21.448  1.00  0.00     0.103 C 
ATOM      8  C   UNL     1      -9.256 -20.178  24.854  1.00  0.00    -0.020 A 
ATOM      9  C   UNL     1      -8.552 -19.834  22.428  1.00  0.00    -0.011 A 
ATOM     10  C   UNL     1     -10.198 -18.775  20.921  1.00  0.00    -0.007 C 
ATOM     11  C   UNL     1      -8.360 -20.219  23.764  1.00  0.00     0.010 A 
ATOM     12  C   UNL     1      -7.152 -20.730  24.212  1.00  0.00     0.046 A 
ATOM     13  C   UNL     1      -8.595 -20.676  25.953  1.00  0.00     0.087 A 
ATOM     14  C   UNL     1      -7.461 -19.988  21.562  1.00  0.00     0.009 A 
ATOM     15  C   UNL     1      -6.057 -20.879  23.359  1.00  0.00     0.027 A 
ATOM     16  C   UNL     1      -6.238 -20.497  22.023  1.00  0.00     0.003 A 
ATOM     17  H   UNL     1      -6.605 -21.399  26.149  1.00  0.00     0.166 HD
ENDROOT
BRANCH   6  18
ATOM     18  C   UNL     1     -11.896 -18.920  19.071  1.00  0.00     0.230 C 
ATOM     19  O   UNL     1     -11.476 -20.018  18.694  1.00  0.00    -0.274 OA
ATOM     20  N   UNL     1     -12.683 -18.125  18.230  1.00  0.00    -0.343 N 
BRANCH  20  21
ATOM     21  C   UNL     1     -12.963 -18.643  16.887  1.00  0.00     0.116 C 
ATOM     22  C   UNL     1     -13.105 -17.554  15.834  1.00  0.00     0.027 C 
ENDBRANCH  20  21
BRANCH  20  23
ATOM     23  C   UNL     1     -13.105 -16.752  18.524  1.00  0.00     0.116 C 
ATOM     24  C   UNL     1     -14.511 -16.667  19.099  1.00  0.00     0.027 C 
ENDBRANCH  20  23
ENDBRANCH   6  18
BRANCH   1  25
ATOM     25  C   UNL     1     -12.553 -17.652  23.524  1.00  0.00     0.112 C 
BRANCH  25  26
ATOM     26  C   UNL     1     -13.466 -16.668  22.851  1.00  0.00    -0.019 C 
ATOM     27  C   UNL     1     -14.789 -16.594  23.057  1.00  0.00     0.005 C 
ENDBRANCH  25  26
ENDBRANCH   1  25
TORSDOF 5
ENDMDL
MODEL 3
REMARK VINA RESULT:    -8.764      2.857      4.789
REMARK INTER + INTRA:         -11.980
REMARK INTER:                 -11.147
REMARK INTRA:                  -0.833
REMARK UNBOUND:                -0.654
REMARK SMILES C=CCN1C[C@H](C(=O)N(CC)CC)C=C2c3cccc4[nH]cc(c34)C[C@H]21
REMARK SMILES IDX 4 1 21 2 26 3 15 4 25 5 6 6 5 7 23 8 16 9 14 10 24 11 20 12
REMARK SMILES IDX 22 13 17 14 19 15 18 16 7 18 8 19 9 20 10 21 11 22 12 23
REMARK SMILES IDX 13 24 3 25 2 26 1 27
REMARK H PARENT 21 17
ROOT
ATOM      1  N   UNL     1     -12.729 -19.322  20.245  1.00  0.00    -0.291 NA
ATOM      2  N   UNL     1      -7.693 -20.378  23.405  1.00  0.00    -0.361 N 
ATOM      3  C   UNL     1     -11.313 -19.576  20.623  1.00  0.00     0.092 C 
ATOM      4  C   UNL     1     -10.315 -18.501  20.093  1.00  0.00    -0.026 C 
ATOM      5  C   UNL     1     -11.135 -20.022  22.122  1.00  0.00     0.061 C 
ATOM      6  C   UNL     1     -12.033 -17.637  18.475  1.00  0.00     0.116 C 
ATOM      7  C   UNL     1     -12.837 -18.899  18.841  1.00  0.00     0.103 C 
ATOM      8  C   UNL     1      -9.697 -20.084  22.497  1.00  0.00    -0.020 A 
ATOM      9  C   UNL     1      -8.926 -18.541  20.620  1.00  0.00    -0.011 A 
ATOM     10  C   UNL     1     -10.673 -17.618  19.137  1.00  0.00    -0.007 C 
ATOM     11  C   UNL     1      -8.749 -19.347  21.755  1.00  0.00     0.010 A 
ATOM     12  C   UNL     1      -7.504 -19.529  22.336  1.00  0.00     0.046 A 
ATOM     13  C   UNL     1      -9.024 -20.719  23.515  1.00  0.00     0.087 A 
ATOM     14  C   UNL     1      -7.782 -17.922  20.098  1.00  0.00     0.009 A 
ATOM     15  C   UNL     1      -6.359 -18.911  21.829  1.00  0.00     0.027 A 
ATOM     16  C   UNL     1      -6.526 -18.103  20.696  1.00  0.00     0.003 A 
ATOM     17  H   UNL     1      -6.959 -20.696  24.021  1.00  0.00     0.166 HD
ENDROOT
BRANCH   6  18
ATOM     18  C   UNL     1     -11.896 -17.579  16.940  1.00  0.00     0.230 C 
ATOM     19  O   UNL     1     -11.045 -18.257  16.355  1.00  0.00    -0.274 OA
ATOM     20  N   UNL     1     -12.786 -16.770  16.223  1.00  0.00    -0.343 N 
BRANCH  20  21
ATOM     21  C   UNL     1     -12.646 -16.749  14.764  1.00  0.00     0.116 C 
ATOM     22  C   UNL     1     -12.033 -15.462  14.232  1.00  0.00     0.027 C 
ENDBRANCH  20  21
BRANCH  20  23
ATOM     23  C   UNL     1     -13.728 -15.822  16.825  1.00  0.00     0.116 C 
ATOM     24  C   UNL     1     -15.165 -16.322  16.823  1.00  0.00     0.027 C 
ENDBRANCH  20  23
ENDBRANCH   6  18
BRANCH   1  25
ATOM     25  C   UNL     1     -13.579 -18.594  21.183  1.00  0.00     0.112 C 
BRANCH  25  26
ATOM     26  C   UNL     1     -15.043 -18.469  20.870  1.00  0.00    -0.019 C 
ATOM     27  C   UNL     1     -16.021 -18.494  21.787  1.00  0.00     0.005 C 
ENDBRANCH  25  26
ENDBRANCH   1  25
TORSDOF 5
ENDMDL
MODEL 4
REMARK VINA RESULT:    -8.624      3.496      8.750
REMARK INTER + INTRA:         -11.799
REMARK INTER:                 -11.105
REMARK INTRA:                  -0.694
REMARK UNBOUND:                -0.654
REMARK SMILES C=CCN1C[C@H](C(=O)N(CC)CC)C=C2c3cccc4[nH]cc(c34)C[C@H]21
REMARK SMILES IDX 4 1 21 2 26 3 15 4 25 5 6 6 5 7 23 8 16 9 14 10 24 11 20 12
REMARK SMILES IDX 22 13 17 14 19 15 18 16 7 18 8 19 9 20 10 21 11 22 12 23
REMARK SMILES IDX 13 24 3 25 2 26 1 27
REMARK H PARENT 21 17
ROOT
ATOM      1  N   UNL     1     -13.600 -17.428  19.822  1.00  0.00    -0.291 NA
ATOM      2  N   UNL     1     -15.519 -15.003  14.637  1.00  0.00    -0.361 N 
ATOM      3  C   UNL     1     -13.652 -16.716  18.518  1.00  0.00     0.092 C 
ATOM      4  C   UNL     1     -12.637 -17.254  17.463  1.00  0.00    -0.026 C 
ATOM      5  C   UNL     1     -15.118 -16.446  18.009  1.00  0.00     0.061 C 
ATOM      6  C   UNL     1     -11.354 -18.469  19.251  1.00  0.00     0.116 C 
ATOM      7  C   UNL     1     -12.213 -17.665  20.245  1.00  0.00     0.103 C 
ATOM      8  C   UNL     1     -15.114 -15.901  16.625  1.00  0.00    -0.020 A 
ATOM      9  C   UNL     1     -12.783 -16.769  16.066  1.00  0.00    -0.011 A 
ATOM     10  C   UNL     1     -11.619 -18.067  17.816  1.00  0.00    -0.007 C 
ATOM     11  C   UNL     1     -13.996 -16.118  15.791  1.00  0.00     0.010 A 
ATOM     12  C   UNL     1     -14.263 -15.564  14.550  1.00  0.00     0.046 A 
ATOM     13  C   UNL     1     -16.048 -15.205  15.893  1.00  0.00     0.087 A 
ATOM     14  C   UNL     1     -11.849 -16.835  15.023  1.00  0.00     0.009 A 
ATOM     15  C   UNL     1     -13.344 -15.631  13.502  1.00  0.00     0.027 A 
ATOM     16  C   UNL     1     -12.130 -16.280  13.766  1.00  0.00     0.003 A 
ATOM     17  H   UNL     1     -15.985 -14.521  13.881  1.00  0.00     0.166 HD
ENDROOT
BRANCH   6  18
ATOM     18  C   UNL     1      -9.869 -18.260  19.613  1.00  0.00     0.230 C 
ATOM     19  O   UNL     1      -9.181 -17.433  19.006  1.00  0.00    -0.274 OA
ATOM     20  N   UNL     1      -9.334 -19.001  20.672  1.00  0.00    -0.343 N 
BRANCH  20  21
ATOM     21  C   UNL     1      -7.925 -18.768  21.008  1.00  0.00     0.116 C 
ATOM     22  C   UNL     1      -7.178 -20.035  21.399  1.00  0.00     0.027 C 
ENDBRANCH  20  21
BRANCH  20  23
ATOM     23  C   UNL     1     -10.017 -20.103  21.356  1.00  0.00     0.116 C 
ATOM     24  C   UNL     1     -10.542 -19.722  22.732  1.00  0.00     0.027 C 
ENDBRANCH  20  23
ENDBRANCH   6  18
BRANCH   1  25
ATOM     25  C   UNL     1     -14.517 -18.543  20.043  1.00  0.00     0.112 C 
BRANCH  25  26
ATOM     26  C   UNL     1     -15.332 -18.559  21.304  1.00  0.00    -0.019 C 
ATOM     27  C   UNL     1     -16.329 -17.705  21.577  1.00  0.00     0.005 C 
ENDBRANCH  25  26
ENDBRANCH   1  25
TORSDOF 5
ENDMDL
MODEL 5
REMARK VINA RESULT:    -8.612      2.490      6.575
REMARK INTER + INTRA:         -11.783
REMARK INTER:                 -11.090
REMARK INTRA:                  -0.693
REMARK UNBOUND:                -0.654
REMARK SMILES C=CCN1C[C@H](C(=O)N(CC)CC)C=C2c3cccc4[nH]cc(c34)C[C@H]21
REMARK SMILES IDX 4 1 21 2 26 3 15 4 25 5 6 6 5 7 23 8 16 9 14 10 24 11 20 12
REMARK SMILES IDX 22 13 17 14 19 15 18 16 7 18 8 19 9 20 10 21 11 22 12 23
REMARK SMILES IDX 13 24 3 25 2 26 1 27
REMARK H PARENT 21 17
ROOT
ATOM      1  N   UNL     1     -10.729 -19.902  21.366  1.00  0.00    -0.291 NA
ATOM      2  N   UNL     1     -12.968 -16.900  16.629  1.00  0.00    -0.361 N 
ATOM      3  C   UNL     1     -11.636 -19.156  20.453  1.00  0.00     0.092 C 
ATOM      4  C   UNL     1     -12.261 -17.877  21.092  1.00  0.00    -0.026 C 
ATOM      5  C   UNL     1     -11.071 -19.007  18.991  1.00  0.00     0.061 C 
ATOM      6  C   UNL     1     -11.618 -18.656  23.393  1.00  0.00     0.116 C 
ATOM      7  C   UNL     1     -11.298 -20.002  22.717  1.00  0.00     0.103 C 
ATOM      8  C   UNL     1     -11.923 -18.102  18.175  1.00  0.00    -0.020 A 
ATOM      9  C   UNL     1     -12.982 -16.945  20.186  1.00  0.00    -0.011 A 
ATOM     10  C   UNL     1     -12.218 -17.661  22.423  1.00  0.00    -0.007 C 
ATOM     11  C   UNL     1     -12.762 -17.164  18.817  1.00  0.00     0.010 A 
ATOM     12  C   UNL     1     -13.401 -16.413  17.844  1.00  0.00     0.046 A 
ATOM     13  C   UNL     1     -12.066 -17.925  16.819  1.00  0.00     0.087 A 
ATOM     14  C   UNL     1     -13.881 -15.925  20.527  1.00  0.00     0.009 A 
ATOM     15  C   UNL     1     -14.291 -15.390  18.173  1.00  0.00     0.027 A 
ATOM     16  C   UNL     1     -14.517 -15.162  19.537  1.00  0.00     0.003 A 
ATOM     17  H   UNL     1     -13.266 -16.548  15.731  1.00  0.00     0.166 HD
ENDROOT
BRANCH   6  18
ATOM     18  C   UNL     1     -12.579 -18.921  24.570  1.00  0.00     0.230 C 
ATOM     19  O   UNL     1     -13.757 -18.552  24.520  1.00  0.00    -0.274 OA
ATOM     20  N   UNL     1     -12.093 -19.624  25.679  1.00  0.00    -0.343 N 
BRANCH  20  21
ATOM     21  C   UNL     1     -13.033 -19.880  26.775  1.00  0.00     0.116 C 
ATOM     22  C   UNL     1     -13.498 -21.327  26.850  1.00  0.00     0.027 C 
ENDBRANCH  20  21
BRANCH  20  23
ATOM     23  C   UNL     1     -10.687 -19.974  25.901  1.00  0.00     0.116 C 
ATOM     24  C   UNL     1      -9.916 -18.905  26.660  1.00  0.00     0.027 C 
ENDBRANCH  20  23
ENDBRANCH   6  18
BRANCH   1  25
ATOM     25  C   UNL     1      -9.298 -19.616  21.311  1.00  0.00     0.112 C 
BRANCH  25  26
ATOM     26  C   UNL     1      -8.427 -20.112  22.430  1.00  0.00    -0.019 C 
ATOM     27  C   UNL     1      -7.701 -19.325  23.236  1.00  0.00     0.005 C 
ENDBRANCH  25  26
ENDBRANCH   1  25
TORSDOF 5
ENDMDL
MODEL 6
REMARK VINA RESULT:    -8.552      4.323      8.189
REMARK INTER + INTRA:         -11.706
REMARK INTER:                 -10.929
REMARK INTRA:                  -0.777
REMARK UNBOUND:                -0.654
REMARK SMILES C=CCN1C[C@H](C(=O)N(CC)CC)C=C2c3cccc4[nH]cc(c34)C[C@H]21
REMARK SMILES IDX 4 1 21 2 26 3 15 4 25 5 6 6 5 7 23 8 16 9 14 10 24 11 20 12
REMARK SMILES IDX 22 13 17 14 19 15 18 16 7 18 8 19 9 20 10 21 11 22 12 23
REMARK SMILES IDX 13 24 3 25 2 26 1 27
REMARK H PARENT 21 17
ROOT
ATOM      1  N   UNL     1     -11.657 -17.956  18.378  1.00  0.00    -0.291 NA
ATOM      2  N   UNL     1     -13.493 -15.573  13.144  1.00  0.00    -0.361 N 
ATOM      3  C   UNL     1     -12.487 -17.551  17.213  1.00  0.00     0.092 C 
ATOM      4  C   UNL     1     -13.781 -16.769  17.599  1.00  0.00    -0.026 C 
ATOM      5  C   UNL     1     -11.645 -16.969  16.016  1.00  0.00     0.061 C 
ATOM      6  C   UNL     1     -13.570 -17.512  19.991  1.00  0.00     0.116 C 
ATOM      7  C   UNL     1     -12.491 -18.479  19.469  1.00  0.00     0.103 C 
ATOM      8  C   UNL     1     -12.530 -16.413  14.957  1.00  0.00    -0.020 A 
ATOM      9  C   UNL     1     -14.540 -16.120  16.498  1.00  0.00    -0.011 A 
ATOM     10  C   UNL     1     -14.237 -16.746  18.869  1.00  0.00    -0.007 C 
ATOM     11  C   UNL     1     -13.850 -16.028  15.280  1.00  0.00     0.010 A 
ATOM     12  C   UNL     1     -14.438 -15.495  14.144  1.00  0.00     0.046 A 
ATOM     13  C   UNL     1     -12.328 -16.125  13.628  1.00  0.00     0.087 A 
ATOM     14  C   UNL     1     -15.858 -15.645  16.517  1.00  0.00     0.009 A 
ATOM     15  C   UNL     1     -15.747 -15.012  14.153  1.00  0.00     0.027 A 
ATOM     16  C   UNL     1     -16.445 -15.098  15.366  1.00  0.00     0.003 A 
ATOM     17  H   UNL     1     -13.637 -15.260  12.194  1.00  0.00     0.166 HD
ENDROOT
BRANCH   6  18
ATOM     18  C   UNL     1     -14.608 -18.327  20.790  1.00  0.00     0.230 C 
ATOM     19  O   UNL     1     -15.047 -19.395  20.350  1.00  0.00    -0.274 OA
ATOM     20  N   UNL     1     -15.007 -17.848  22.042  1.00  0.00    -0.343 N 
BRANCH  20  21
ATOM     21  C   UNL     1     -15.979 -18.653  22.790  1.00  0.00     0.116 C 
ATOM     22  C   UNL     1     -17.421 -18.218  22.573  1.00  0.00     0.027 C 
ENDBRANCH  20  21
BRANCH  20  23
ATOM     23  C   UNL     1     -14.661 -16.531  22.587  1.00  0.00     0.116 C 
ATOM     24  C   UNL     1     -13.638 -16.597  23.710  1.00  0.00     0.027 C 
ENDBRANCH  20  23
ENDBRANCH   6  18
BRANCH   1  25
ATOM     25  C   UNL     1     -10.567 -17.077  18.795  1.00  0.00     0.112 C 
BRANCH  25  26
ATOM     26  C   UNL     1      -9.211 -17.681  19.021  1.00  0.00    -0.019 C 
ATOM     27  C   UNL     1      -8.055 -17.004  18.949  1.00  0.00     0.005 C 
ENDBRANCH  25  26
ENDBRANCH   1  25
TORSDOF 5
ENDMDL
MODEL 7
REMARK VINA RESULT:    -8.438      2.551      7.424
REMARK INTER + INTRA:         -11.559
REMARK INTER:                 -10.835
REMARK INTRA:                  -0.724
REMARK UNBOUND:                -0.654
REMARK SMILES C=CCN1C[C@H](C(=O)N(CC)CC)C=C2c3cccc4[nH]cc(c34)C[C@H]21
REMARK SMILES IDX 4 1 21 2 26 3 15 4 25 5 6 6 5 7 23 8 16 9 14 10 24 11 20 12
REMARK SMILES IDX 22 13 17 14 19 15 18 16 7 18 8 19 9 20 10 21 11 22 12 23
REMARK SMILES IDX 13 24 3 25 2 26 1 27
REMARK H PARENT 21 17
ROOT
ATOM      1  N   UNL     1     -13.164 -17.120  23.028  1.00  0.00    -0.291 NA
ATOM      2  N   UNL     1     -13.966 -15.240  17.347  1.00  0.00    -0.361 N 
ATOM      3  C   UNL     1     -12.948 -16.793  21.594  1.00  0.00     0.092 C 
ATOM      4  C   UNL     1     -12.465 -18.003  20.735  1.00  0.00    -0.026 C 
ATOM      5  C   UNL     1     -14.089 -15.902  20.975  1.00  0.00     0.061 C 
ATOM      6  C   UNL     1     -11.863 -19.291  22.808  1.00  0.00     0.116 C 
ATOM      7  C   UNL     1     -12.078 -17.961  23.552  1.00  0.00     0.103 C 
ATOM      8  C   UNL     1     -13.921 -15.758  19.504  1.00  0.00    -0.020 A 
ATOM      9  C   UNL     1     -12.456 -17.831  19.260  1.00  0.00    -0.011 A 
ATOM     10  C   UNL     1     -12.002 -19.133  21.309  1.00  0.00    -0.007 C 
ATOM     11  C   UNL     1     -13.163 -16.713  18.791  1.00  0.00     0.010 A 
ATOM     12  C   UNL     1     -13.207 -16.386  17.445  1.00  0.00     0.046 A 
ATOM     13  C   UNL     1     -14.409 -14.851  18.593  1.00  0.00     0.087 A 
ATOM     14  C   UNL     1     -11.793 -18.609  18.300  1.00  0.00     0.009 A 
ATOM     15  C   UNL     1     -12.557 -17.158  16.480  1.00  0.00     0.027 A 
ATOM     16  C   UNL     1     -11.849 -18.278  16.938  1.00  0.00     0.003 A 
ATOM     17  H   UNL     1     -14.172 -14.761  16.482  1.00  0.00     0.166 HD
ENDROOT
BRANCH   6  18
ATOM     18  C   UNL     1     -10.466 -19.832  23.174  1.00  0.00     0.230 C 
ATOM     19  O   UNL     1      -9.493 -19.614  22.446  1.00  0.00    -0.274 OA
ATOM     20  N   UNL     1     -10.322 -20.541  24.372  1.00  0.00    -0.343 N 
BRANCH  20  21
ATOM     21  C   UNL     1      -8.979 -21.026  24.706  1.00  0.00     0.116 C 
ATOM     22  C   UNL     1      -8.431 -20.450  26.004  1.00  0.00     0.027 C 
ENDBRANCH  20  21
BRANCH  20  23
ATOM     23  C   UNL     1     -11.429 -20.978  25.229  1.00  0.00     0.116 C 
ATOM     24  C   UNL     1     -11.437 -22.478  25.480  1.00  0.00     0.027 C 
ENDBRANCH  20  23
ENDBRANCH   6  18
BRANCH   1  25
ATOM     25  C   UNL     1     -14.507 -17.497  23.460  1.00  0.00     0.112 C 
BRANCH  25  26
ATOM     26  C   UNL     1     -14.705 -17.925  24.887  1.00  0.00    -0.019 C 
ATOM     27  C   UNL     1     -15.504 -18.929  25.276  1.00  0.00     0.005 C 
ENDBRANCH  25  26
ENDBRANCH   1  25
TORSDOF 5
ENDMDL
MODEL 8
REMARK VINA RESULT:    -8.399      2.658      7.227
REMARK INTER + INTRA:         -11.509
REMARK INTER:                 -10.656
REMARK INTRA:                  -0.852
REMARK UNBOUND:                -0.654
REMARK SMILES C=CCN1C[C@H](C(=O)N(CC)CC)C=C2c3cccc4[nH]cc(c34)C[C@H]21
REMARK SMILES IDX 4 1 21 2 26 3 15 4 25 5 6 6 5 7 23 8 16 9 14 10 24 11 20 12
REMARK SMILES IDX 22 13 17 14 19 15 18 16 7 18 8 19 9 20 10 21 11 22 12 23
REMARK SMILES IDX 13 24 3 25 2 26 1 27
REMARK H PARENT 21 17
ROOT
ATOM      1  N   UNL     1     -13.586 -16.521  22.755  1.00  0.00    -0.291 NA
ATOM      2  N   UNL     1     -13.770 -15.522  16.804  1.00  0.00    -0.361 N 
ATOM      3  C   UNL     1     -13.222 -16.426  21.317  1.00  0.00     0.092 C 
ATOM      4  C   UNL     1     -12.714 -17.767  20.703  1.00  0.00    -0.026 C 
ATOM      5  C   UNL     1     -14.262 -15.611  20.460  1.00  0.00     0.061 C 
ATOM      6  C   UNL     1     -12.365 -18.736  22.996  1.00  0.00     0.116 C 
ATOM      7  C   UNL     1     -12.592 -17.301  23.506  1.00  0.00     0.103 C 
ATOM      8  C   UNL     1     -13.950 -15.701  19.008  1.00  0.00    -0.020 A 
ATOM      9  C   UNL     1     -12.559 -17.827  19.227  1.00  0.00    -0.011 A 
ATOM     10  C   UNL     1     -12.355 -18.808  21.485  1.00  0.00    -0.007 C 
ATOM     11  C   UNL     1     -13.170 -16.776  18.526  1.00  0.00     0.010 A 
ATOM     12  C   UNL     1     -13.073 -16.660  17.149  1.00  0.00     0.046 A 
ATOM     13  C   UNL     1     -14.310 -14.933  17.926  1.00  0.00     0.087 A 
ATOM     14  C   UNL     1     -11.843 -18.762  18.467  1.00  0.00     0.009 A 
ATOM     15  C   UNL     1     -12.369 -17.590  16.382  1.00  0.00     0.027 A 
ATOM     16  C   UNL     1     -11.756 -18.645  17.072  1.00  0.00     0.003 A 
ATOM     17  H   UNL     1     -13.873 -15.178  15.860  1.00  0.00     0.166 HD
ENDROOT
BRANCH   6  18
ATOM     18  C   UNL     1     -11.033 -19.253  23.578  1.00  0.00     0.230 C 
ATOM     19  O   UNL     1      -9.979 -19.135  22.944  1.00  0.00    -0.274 OA
ATOM     20  N   UNL     1     -11.042 -19.820  24.857  1.00  0.00    -0.343 N 
BRANCH  20  21
ATOM     21  C   UNL     1      -9.759 -20.285  25.394  1.00  0.00     0.116 C 
ATOM     22  C   UNL     1      -9.557 -21.788  25.268  1.00  0.00     0.027 C 
ENDBRANCH  20  21
BRANCH  20  23
ATOM     23  C   UNL     1     -12.250 -20.138  25.626  1.00  0.00     0.116 C 
ATOM     24  C   UNL     1     -12.401 -19.293  26.881  1.00  0.00     0.027 C 
ENDBRANCH  20  23
ENDBRANCH   6  18
BRANCH   1  25
ATOM     25  C   UNL     1     -14.979 -16.789  23.104  1.00  0.00     0.112 C 
BRANCH  25  26
ATOM     26  C   UNL     1     -15.512 -18.178  22.899  1.00  0.00    -0.019 C 
ATOM     27  C   UNL     1     -16.216 -18.573  21.828  1.00  0.00     0.005 C 
ENDBRANCH  25  26
ENDBRANCH   1  25
TORSDOF 5
ENDMDL
MODEL 9
REMARK VINA RESULT:    -8.330      2.942      5.370
REMARK INTER + INTRA:         -11.419
REMARK INTER:                 -10.564
REMARK INTRA:                  -0.854
REMARK UNBOUND:                -0.654
REMARK SMILES C=CCN1C[C@H](C(=O)N(CC)CC)C=C2c3cccc4[nH]cc(c34)C[C@H]21
REMARK SMILES IDX 4 1 21 2 26 3 15 4 25 5 6 6 5 7 23 8 16 9 14 10 24 11 20 12
REMARK SMILES IDX 22 13 17 14 19 15 18 16 7 18 8 19 9 20 10 21 11 22 12 23
REMARK SMILES IDX 13 24 3 25 2 26 1 27
REMARK H PARENT 21 17
ROOT
ATOM      1  N   UNL     1     -14.209 -17.561  20.776  1.00  0.00    -0.291 NA
ATOM      2  N   UNL     1     -10.146 -20.297  24.305  1.00  0.00    -0.361 N 
ATOM      3  C   UNL     1     -13.099 -18.420  21.266  1.00  0.00     0.092 C 
ATOM      4  C   UNL     1     -11.751 -18.202  20.511  1.00  0.00    -0.026 C 
ATOM      5  C   UNL     1     -13.019 -18.509  22.836  1.00  0.00     0.061 C 
ATOM      6  C   UNL     1     -12.935 -16.991  18.654  1.00  0.00     0.116 C 
ATOM      7  C   UNL     1     -14.231 -17.504  19.308  1.00  0.00     0.103 C 
ATOM      8  C   UNL     1     -11.791 -19.224  23.272  1.00  0.00    -0.020 A 
ATOM      9  C   UNL     1     -10.537 -18.836  21.086  1.00  0.00    -0.011 A 
ATOM     10  C   UNL     1     -11.700 -17.529  19.342  1.00  0.00    -0.007 C 
ATOM     11  C   UNL     1     -10.683 -19.307  22.400  1.00  0.00     0.010 A 
ATOM     12  C   UNL     1      -9.659 -19.969  23.059  1.00  0.00     0.046 A 
ATOM     13  C   UNL     1     -11.440 -19.846  24.448  1.00  0.00     0.087 A 
ATOM     14  C   UNL     1      -9.300 -19.064  20.466  1.00  0.00     0.009 A 
ATOM     15  C   UNL     1      -8.421 -20.193  22.453  1.00  0.00     0.027 A 
ATOM     16  C   UNL     1      -8.265 -19.726  21.141  1.00  0.00     0.003 A 
ATOM     17  H   UNL     1      -9.622 -20.791  25.014  1.00  0.00     0.166 HD
ENDROOT
BRANCH   6  18
ATOM     18  C   UNL     1     -12.951 -17.393  17.165  1.00  0.00     0.230 C 
ATOM     19  O   UNL     1     -12.786 -18.570  16.826  1.00  0.00    -0.274 OA
ATOM     20  N   UNL     1     -13.198 -16.400  16.211  1.00  0.00    -0.343 N 
BRANCH  20  21
ATOM     21  C   UNL     1     -13.229 -16.813  14.804  1.00  0.00     0.116 C 
ATOM     22  C   UNL     1     -12.668 -15.766  13.853  1.00  0.00     0.027 C 
ENDBRANCH  20  21
BRANCH  20  23
ATOM     23  C   UNL     1     -13.261 -14.962  16.493  1.00  0.00     0.116 C 
ATOM     24  C   UNL     1     -14.678 -14.457  16.721  1.00  0.00     0.027 C 
ENDBRANCH  20  23
ENDBRANCH   6  18
BRANCH   1  25
ATOM     25  C   UNL     1     -14.455 -16.290  21.453  1.00  0.00     0.112 C 
BRANCH  25  26
ATOM     26  C   UNL     1     -15.402 -15.313  20.817  1.00  0.00    -0.019 C 
ATOM     27  C   UNL     1     -16.674 -15.127  21.200  1.00  0.00     0.005 C 
ENDBRANCH  25  26
ENDBRANCH   1  25
TORSDOF 5
ENDMDL
MODEL 10
REMARK VINA RESULT:    -8.313      2.367      7.612
REMARK INTER + INTRA:         -11.398
REMARK INTER:                 -10.730
REMARK INTRA:                  -0.668
REMARK UNBOUND:                -0.654
REMARK SMILES C=CCN1C[C@H](C(=O)N(CC)CC)C=C2c3cccc4[nH]cc(c34)C[C@H]21
REMARK SMILES IDX 4 1 21 2 26 3 15 4 25 5 6 6 5 7 23 8 16 9 14 10 24 11 20 12
REMARK SMILES IDX 22 13 17 14 19 15 18 16 7 18 8 19 9 20 10 21 11 22 12 23
REMARK SMILES IDX 13 24 3 25 2 26 1 27
REMARK H PARENT 21 17
ROOT
ATOM      1  N   UNL     1     -12.863 -17.505  23.866  1.00  0.00    -0.291 NA
ATOM      2  N   UNL     1     -15.020 -15.346  18.656  1.00  0.00    -0.361 N 
ATOM      3  C   UNL     1     -12.988 -17.065  22.451  1.00  0.00     0.092 C 
ATOM      4  C   UNL     1     -12.604 -18.163  21.411  1.00  0.00    -0.026 C 
ATOM      5  C   UNL     1     -14.305 -16.252  22.161  1.00  0.00     0.061 C 
ATOM      6  C   UNL     1     -11.467 -19.519  23.196  1.00  0.00     0.116 C 
ATOM      7  C   UNL     1     -11.625 -18.268  24.079  1.00  0.00     0.103 C 
ATOM      8  C   UNL     1     -14.469 -15.997  20.705  1.00  0.00    -0.020 A 
ATOM      9  C   UNL     1     -12.927 -17.896  19.986  1.00  0.00    -0.011 A 
ATOM     10  C   UNL     1     -11.937 -19.278  21.778  1.00  0.00    -0.007 C 
ATOM     11  C   UNL     1     -13.807 -16.824  19.771  1.00  0.00     0.010 A 
ATOM     12  C   UNL     1     -14.166 -16.416  18.496  1.00  0.00     0.046 A 
ATOM     13  C   UNL     1     -15.214 -15.085  19.995  1.00  0.00     0.087 A 
ATOM     14  C   UNL     1     -12.425 -18.541  18.847  1.00  0.00     0.009 A 
ATOM     15  C   UNL     1     -13.679 -17.057  17.356  1.00  0.00     0.027 A 
ATOM     16  C   UNL     1     -12.799 -18.129  17.559  1.00  0.00     0.003 A 
ATOM     17  H   UNL     1     -15.446 -14.834  17.896  1.00  0.00     0.166 HD
ENDROOT
BRANCH   6  18
ATOM     18  C   UNL     1      -9.985 -19.944  23.216  1.00  0.00     0.230 C 
ATOM     19  O   UNL     1      -9.252 -19.730  22.245  1.00  0.00    -0.274 OA
ATOM     20  N   UNL     1      -9.480 -20.540  24.378  1.00  0.00    -0.343 N 
BRANCH  20  21
ATOM     21  C   UNL     1      -8.063 -20.915  24.377  1.00  0.00     0.116 C 
ATOM     22  C   UNL     1      -7.442 -20.940  25.766  1.00  0.00     0.027 C 
ENDBRANCH  20  21
BRANCH  20  23
ATOM     23  C   UNL     1     -10.292 -20.969  25.522  1.00  0.00     0.116 C 
ATOM     24  C   UNL     1     -10.999 -22.296  25.290  1.00  0.00     0.027 C 
ENDBRANCH  20  23
ENDBRANCH   6  18
BRANCH   1  25
ATOM     25  C   UNL     1     -14.046 -18.039  24.535  1.00  0.00     0.112 C 
BRANCH  25  26
ATOM     26  C   UNL     1     -13.921 -18.477  25.966  1.00  0.00    -0.019 C 
ATOM     27  C   UNL     1     -13.965 -19.753  26.377  1.00  0.00     0.005 C 
ENDBRANCH  25  26
ENDBRANCH   1  25
TORSDOF 5
ENDMDL
MODEL 11
REMARK VINA RESULT:    -8.296      3.496      8.158
REMARK INTER + INTRA:         -11.376
REMARK INTER:                 -10.590
REMARK INTRA:                  -0.786
REMARK UNBOUND:                -0.654
REMARK SMILES C=CCN1C[C@H](C(=O)N(CC)CC)C=C2c3cccc4[nH]cc(c34)C[C@H]21
REMARK SMILES IDX 4 1 21 2 26 3 15 4 25 5 6 6 5 7 23 8 16 9 14 10 24 11 20 12
REMARK SMILES IDX 22 13 17 14 19 15 18 16 7 18 8 19 9 20 10 21 11 22 12 23
REMARK SMILES IDX 13 24 3 25 2 26 1 27
REMARK H PARENT 21 17
ROOT
ATOM      1  N   UNL     1     -12.870 -17.899  19.278  1.00  0.00    -0.291 NA
ATOM      2  N   UNL     1     -15.532 -14.425  15.118  1.00  0.00    -0.361 N 
ATOM      3  C   UNL     1     -13.864 -17.089  18.525  1.00  0.00     0.092 C 
ATOM      4  C   UNL     1     -14.508 -15.940  19.363  1.00  0.00    -0.026 C 
ATOM      5  C   UNL     1     -13.398 -16.719  17.067  1.00  0.00     0.061 C 
ATOM      6  C   UNL     1     -13.689 -16.979  21.500  1.00  0.00     0.116 C 
ATOM      7  C   UNL     1     -13.349 -18.206  20.633  1.00  0.00     0.103 C 
ATOM      8  C   UNL     1     -14.340 -15.762  16.428  1.00  0.00    -0.020 A 
ATOM      9  C   UNL     1     -15.325 -14.938  18.631  1.00  0.00    -0.011 A 
ATOM     10  C   UNL     1     -14.393 -15.900  20.707  1.00  0.00    -0.007 C 
ATOM     11  C   UNL     1     -15.180 -14.963  17.235  1.00  0.00     0.010 A 
ATOM     12  C   UNL     1     -15.911 -14.126  16.408  1.00  0.00     0.046 A 
ATOM     13  C   UNL     1     -14.574 -15.416  15.118  1.00  0.00     0.087 A 
ATOM     14  C   UNL     1     -16.247 -14.021  19.155  1.00  0.00     0.009 A 
ATOM     15  C   UNL     1     -16.826 -13.204  16.920  1.00  0.00     0.027 A 
ATOM     16  C   UNL     1     -16.977 -13.170  18.313  1.00  0.00     0.003 A 
ATOM     17  H   UNL     1     -15.901 -13.975  14.292  1.00  0.00     0.166 HD
ENDROOT
BRANCH   6  18
ATOM     18  C   UNL     1     -14.562 -17.447  22.682  1.00  0.00     0.230 C 
ATOM     19  O   UNL     1     -15.794 -17.401  22.615  1.00  0.00    -0.274 OA
ATOM     20  N   UNL     1     -13.924 -17.963  23.816  1.00  0.00    -0.343 N 
BRANCH  20  21
ATOM     21  C   UNL     1     -14.778 -18.420  24.916  1.00  0.00     0.116 C 
ATOM     22  C   UNL     1     -14.282 -17.989  26.289  1.00  0.00     0.027 C 
ENDBRANCH  20  21
BRANCH  20  23
ATOM     23  C   UNL     1     -12.477 -17.927  24.055  1.00  0.00     0.116 C 
ATOM     24  C   UNL     1     -11.790 -19.253  23.771  1.00  0.00     0.027 C 
ENDBRANCH  20  23
ENDBRANCH   6  18
BRANCH   1  25
ATOM     25  C   UNL     1     -11.460 -17.531  19.184  1.00  0.00     0.112 C 
BRANCH  25  26
ATOM     26  C   UNL     1     -10.431 -18.623  19.261  1.00  0.00    -0.019 C 
ATOM     27  C   UNL     1      -9.840 -19.032  20.393  1.00  0.00     0.005 C 
ENDBRANCH  25  26
ENDBRANCH   1  25
TORSDOF 5
ENDMDL
MODEL 12
REMARK VINA RESULT:    -8.213      2.489      7.043
REMARK INTER + INTRA:         -11.268
REMARK INTER:                 -12.126
REMARK INTRA:                   0.858
REMARK UNBOUND:                -0.654
REMARK SMILES C=CCN1C[C@H](C(=O)N(CC)CC)C=C2c3cccc4[nH]cc(c34)C[C@H]21
REMARK SMILES IDX 4 1 21 2 26 3 15 4 25 5 6 6 5 7 23 8 16 9 14 10 24 11 20 12
REMARK SMILES IDX 22 13 17 14 19 15 18 16 7 18 8 19 9 20 10 21 11 22 12 23
REMARK SMILES IDX 13 24 3 25 2 26 1 27
REMARK H PARENT 21 17
ROOT
ATOM      1  N   UNL     1     -11.890 -18.602  25.250  1.00  0.00    -0.291 NA
ATOM      2  N   UNL     1     -13.182 -16.717  19.661  1.00  0.00    -0.361 N 
ATOM      3  C   UNL     1     -11.799 -18.275  23.802  1.00  0.00     0.092 C 
ATOM      4  C   UNL     1     -11.396 -19.485  22.904  1.00  0.00    -0.026 C 
ATOM      5  C   UNL     1     -12.989 -17.382  23.286  1.00  0.00     0.061 C 
ATOM      6  C   UNL     1     -10.618 -20.776  24.915  1.00  0.00     0.116 C 
ATOM      7  C   UNL     1     -10.764 -19.446  25.676  1.00  0.00     0.103 C 
ATOM      8  C   UNL     1     -12.949 -17.237  21.806  1.00  0.00    -0.020 A 
ATOM      9  C   UNL     1     -11.516 -19.312  21.433  1.00  0.00    -0.011 A 
ATOM     10  C   UNL     1     -10.887 -20.617  23.435  1.00  0.00    -0.007 C 
ATOM     11  C   UNL     1     -12.259 -18.193  21.028  1.00  0.00     0.010 A 
ATOM     12  C   UNL     1     -12.420 -17.865  19.692  1.00  0.00     0.046 A 
ATOM     13  C   UNL     1     -13.513 -16.328  20.941  1.00  0.00     0.087 A 
ATOM     14  C   UNL     1     -10.941 -20.091  20.418  1.00  0.00     0.009 A 
ATOM     15  C   UNL     1     -11.859 -18.638  18.674  1.00  0.00     0.027 A 
ATOM     16  C   UNL     1     -11.116 -19.759  19.067  1.00  0.00     0.003 A 
ATOM     17  H   UNL     1     -13.462 -16.238  18.818  1.00  0.00     0.166 HD
ENDROOT
BRANCH   6  18
ATOM     18  C   UNL     1      -9.195 -21.320  25.158  1.00  0.00     0.230 C 
ATOM     19  O   UNL     1      -9.016 -22.352  25.813  1.00  0.00    -0.274 OA
ATOM     20  N   UNL     1      -8.116 -20.640  24.582  1.00  0.00    -0.343 N 
BRANCH  20  21
ATOM     21  C   UNL     1      -6.777 -21.190  24.811  1.00  0.00     0.116 C 
ATOM     22  C   UNL     1      -5.732 -20.671  23.834  1.00  0.00     0.027 C 
ENDBRANCH  20  21
BRANCH  20  23
ATOM     23  C   UNL     1      -8.205 -19.336  23.915  1.00  0.00     0.116 C 
ATOM     24  C   UNL     1      -7.879 -19.399  22.431  1.00  0.00     0.027 C 
ENDBRANCH  20  23
ENDBRANCH   6  18
BRANCH   1  25
ATOM     25  C   UNL     1     -13.191 -18.977  25.798  1.00  0.00     0.112 C 
BRANCH  25  26
ATOM     26  C   UNL     1     -13.233 -19.974  26.920  1.00  0.00    -0.019 C 
ATOM     27  C   UNL     1     -13.763 -21.203  26.826  1.00  0.00     0.005 C 
ENDBRANCH  25  26
ENDBRANCH   1  25
TORSDOF 5
ENDMDL
MODEL 13
REMARK VINA RESULT:    -8.210      2.957      7.210
REMARK INTER + INTRA:         -11.264
REMARK INTER:                 -10.473
REMARK INTRA:                  -0.790
REMARK UNBOUND:                -0.654
REMARK SMILES C=CCN1C[C@H](C(=O)N(CC)CC)C=C2c3cccc4[nH]cc(c34)C[C@H]21
REMARK SMILES IDX 4 1 21 2 26 3 15 4 25 5 6 6 5 7 23 8 16 9 14 10 24 11 20 12
REMARK SMILES IDX 22 13 17 14 19 15 18 16 7 18 8 19 9 20 10 21 11 22 12 23
REMARK SMILES IDX 13 24 3 25 2 26 1 27
REMARK H PARENT 21 17
ROOT
ATOM      1  N   UNL     1     -11.785 -19.255  19.721  1.00  0.00    -0.291 NA
ATOM      2  N   UNL     1     -13.887 -15.835  15.211  1.00  0.00    -0.361 N 
ATOM      3  C   UNL     1     -12.640 -18.371  18.885  1.00  0.00     0.092 C 
ATOM      4  C   UNL     1     -13.065 -17.048  19.595  1.00  0.00    -0.026 C 
ATOM      5  C   UNL     1     -12.141 -18.241  17.397  1.00  0.00     0.061 C 
ATOM      6  C   UNL     1     -12.399 -17.981  21.832  1.00  0.00     0.116 C 
ATOM      7  C   UNL     1     -12.287 -19.331  21.101  1.00  0.00     0.103 C 
ATOM      8  C   UNL     1     -12.917 -17.210  16.658  1.00  0.00    -0.020 A 
ATOM      9  C   UNL     1     -13.712 -16.003  18.759  1.00  0.00    -0.011 A 
ATOM     10  C   UNL     1     -12.922 -16.886  20.927  1.00  0.00    -0.007 C 
ATOM     11  C   UNL     1     -13.596 -16.199  17.375  1.00  0.00     0.010 A 
ATOM     12  C   UNL     1     -14.188 -15.341  16.462  1.00  0.00     0.046 A 
ATOM     13  C   UNL     1     -13.111 -16.969  15.318  1.00  0.00     0.087 A 
ATOM     14  C   UNL     1     -14.456 -14.893  19.181  1.00  0.00     0.009 A 
ATOM     15  C   UNL     1     -14.924 -14.228  16.871  1.00  0.00     0.027 A 
ATOM     16  C   UNL     1     -15.045 -14.023  18.252  1.00  0.00     0.003 A 
ATOM     17  H   UNL     1     -14.188 -15.417  14.342  1.00  0.00     0.166 HD
ENDROOT
BRANCH   6  18
ATOM     18  C   UNL     1     -13.319 -18.166  23.055  1.00  0.00     0.230 C 
ATOM     19  O   UNL     1     -14.527 -17.919  22.981  1.00  0.00    -0.274 OA
ATOM     20  N   UNL     1     -12.759 -18.661  24.239  1.00  0.00    -0.343 N 
BRANCH  20  21
ATOM     21  C   UNL     1     -13.660 -18.847  25.380  1.00  0.00     0.116 C 
ATOM     22  C   UNL     1     -12.941 -18.885  26.721  1.00  0.00     0.027 C 
ENDBRANCH  20  21
BRANCH  20  23
ATOM     23  C   UNL     1     -11.324 -18.846  24.475  1.00  0.00     0.116 C 
ATOM     24  C   UNL     1     -10.859 -20.277  24.253  1.00  0.00     0.027 C 
ENDBRANCH  20  23
ENDBRANCH   6  18
BRANCH   1  25
ATOM     25  C   UNL     1     -10.335 -19.145  19.591  1.00  0.00     0.112 C 
BRANCH  25  26
ATOM     26  C   UNL     1      -9.474 -19.742  20.668  1.00  0.00    -0.019 C 
ATOM     27  C   UNL     1      -8.430 -19.123  21.239  1.00  0.00     0.005 C 
ENDBRANCH  25  26
ENDBRANCH   1  25
TORSDOF 5
ENDMDL
MODEL 14
REMARK VINA RESULT:    -8.167      6.248      8.881
REMARK INTER + INTRA:         -11.208
REMARK INTER:                 -10.628
REMARK INTRA:                  -0.580
REMARK UNBOUND:                -0.654
REMARK SMILES C=CCN1C[C@H](C(=O)N(CC)CC)C=C2c3cccc4[nH]cc(c34)C[C@H]21
REMARK SMILES IDX 4 1 21 2 26 3 15 4 25 5 6 6 5 7 23 8 16 9 14 10 24 11 20 12
REMARK SMILES IDX 22 13 17 14 19 15 18 16 7 18 8 19 9 20 10 21 11 22 12 23
REMARK SMILES IDX 13 24 3 25 2 26 1 27
REMARK H PARENT 21 17
ROOT
ATOM      1  N   UNL     1     -15.652 -14.469  14.801  1.00  0.00    -0.291 NA
ATOM      2  N   UNL     1     -10.827 -17.920  15.925  1.00  0.00    -0.361 N 
ATOM      3  C   UNL     1     -14.624 -15.299  15.483  1.00  0.00     0.092 C 
ATOM      4  C   UNL     1     -15.213 -16.505  16.280  1.00  0.00    -0.026 C 
ATOM      5  C   UNL     1     -13.363 -15.596  14.589  1.00  0.00     0.061 C 
ATOM      6  C   UNL     1     -17.515 -15.502  16.184  1.00  0.00     0.116 C 
ATOM      7  C   UNL     1     -16.810 -14.232  15.673  1.00  0.00     0.103 C 
ATOM      8  C   UNL     1     -12.456 -16.575  15.247  1.00  0.00    -0.020 A 
ATOM      9  C   UNL     1     -14.254 -17.519  16.789  1.00  0.00    -0.011 A 
ATOM     10  C   UNL     1     -16.530 -16.586  16.563  1.00  0.00    -0.007 C 
ATOM     11  C   UNL     1     -12.964 -17.439  16.242  1.00  0.00     0.010 A 
ATOM     12  C   UNL     1     -11.942 -18.281  16.650  1.00  0.00     0.046 A 
ATOM     13  C   UNL     1     -11.129 -16.886  15.066  1.00  0.00     0.087 A 
ATOM     14  C   UNL     1     -14.465 -18.496  17.772  1.00  0.00     0.009 A 
ATOM     15  C   UNL     1     -12.144 -19.263  17.622  1.00  0.00     0.027 A 
ATOM     16  C   UNL     1     -13.429 -19.351  18.175  1.00  0.00     0.003 A 
ATOM     17  H   UNL     1      -9.921 -18.360  16.010  1.00  0.00     0.166 HD
ENDROOT
BRANCH   6  18
ATOM     18  C   UNL     1     -18.395 -15.116  17.391  1.00  0.00     0.230 C 
ATOM     19  O   UNL     1     -17.892 -14.641  18.414  1.00  0.00    -0.274 OA
ATOM     20  N   UNL     1     -19.781 -15.279  17.281  1.00  0.00    -0.343 N 
BRANCH  20  21
ATOM     21  C   UNL     1     -20.596 -14.885  18.435  1.00  0.00     0.116 C 
ATOM     22  C   UNL     1     -21.210 -16.065  19.175  1.00  0.00     0.027 C 
ENDBRANCH  20  21
BRANCH  20  23
ATOM     23  C   UNL     1     -20.461 -15.964  16.177  1.00  0.00     0.116 C 
ATOM     24  C   UNL     1     -21.357 -15.043  15.362  1.00  0.00     0.027 C 
ENDBRANCH  20  23
ENDBRANCH   6  18
BRANCH   1  25
ATOM     25  C   UNL     1     -15.972 -14.766  13.407  1.00  0.00     0.112 C 
BRANCH  25  26
ATOM     26  C   UNL     1     -17.184 -14.120  12.799  1.00  0.00    -0.019 C 
ATOM     27  C   UNL     1     -18.441 -14.561  12.956  1.00  0.00     0.005 C 
ENDBRANCH  25  26
ENDBRANCH   1  25
TORSDOF 5
ENDMDL
MODEL 15
REMARK VINA RESULT:    -8.123      3.131      7.769
REMARK INTER + INTRA:         -11.151
REMARK INTER:                 -10.522
REMARK INTRA:                  -0.629
REMARK UNBOUND:                -0.654
REMARK SMILES C=CCN1C[C@H](C(=O)N(CC)CC)C=C2c3cccc4[nH]cc(c34)C[C@H]21
REMARK SMILES IDX 4 1 21 2 26 3 15 4 25 5 6 6 5 7 23 8 16 9 14 10 24 11 20 12
REMARK SMILES IDX 22 13 17 14 19 15 18 16 7 18 8 19 9 20 10 21 11 22 12 23
REMARK SMILES IDX 13 24 3 25 2 26 1 27
REMARK H PARENT 21 17
ROOT
ATOM      1  N   UNL     1     -11.067 -18.153  18.061  1.00  0.00    -0.291 NA
ATOM      2  N   UNL     1     -15.374 -14.466  15.984  1.00  0.00    -0.361 N 
ATOM      3  C   UNL     1     -12.358 -17.443  17.864  1.00  0.00     0.092 C 
ATOM      4  C   UNL     1     -12.905 -16.754  19.152  1.00  0.00    -0.026 C 
ATOM      5  C   UNL     1     -12.411 -16.596  16.537  1.00  0.00     0.061 C 
ATOM      6  C   UNL     1     -11.331 -18.089  20.587  1.00  0.00     0.116 C 
ATOM      7  C   UNL     1     -11.066 -18.917  19.317  1.00  0.00     0.103 C 
ATOM      8  C   UNL     1     -13.644 -15.766  16.479  1.00  0.00    -0.020 A 
ATOM      9  C   UNL     1     -14.055 -15.827  18.994  1.00  0.00    -0.011 A 
ATOM     10  C   UNL     1     -12.406 -17.045  20.372  1.00  0.00    -0.007 C 
ATOM     11  C   UNL     1     -14.327 -15.444  17.672  1.00  0.00     0.010 A 
ATOM     12  C   UNL     1     -15.398 -14.624  17.353  1.00  0.00     0.046 A 
ATOM     13  C   UNL     1     -14.309 -15.153  15.442  1.00  0.00     0.087 A 
ATOM     14  C   UNL     1     -14.919 -15.339  19.985  1.00  0.00     0.009 A 
ATOM     15  C   UNL     1     -16.259 -14.127  18.333  1.00  0.00     0.027 A 
ATOM     16  C   UNL     1     -15.995 -14.503  19.657  1.00  0.00     0.003 A 
ATOM     17  H   UNL     1     -16.039 -13.918  15.459  1.00  0.00     0.166 HD
ENDROOT
BRANCH   6  18
ATOM     18  C   UNL     1     -11.726 -19.055  21.723  1.00  0.00     0.230 C 
ATOM     19  O   UNL     1     -12.912 -19.309  21.953  1.00  0.00    -0.274 OA
ATOM     20  N   UNL     1     -10.705 -19.667  22.459  1.00  0.00    -0.343 N 
BRANCH  20  21
ATOM     21  C   UNL     1     -11.108 -20.596  23.519  1.00  0.00     0.116 C 
ATOM     22  C   UNL     1     -11.058 -19.986  24.912  1.00  0.00     0.027 C 
ENDBRANCH  20  21
BRANCH  20  23
ATOM     23  C   UNL     1      -9.282 -19.325  22.366  1.00  0.00     0.116 C 
ATOM     24  C   UNL     1      -8.493 -20.282  21.486  1.00  0.00     0.027 C 
ENDBRANCH  20  23
ENDBRANCH   6  18
BRANCH   1  25
ATOM     25  C   UNL     1      -9.828 -17.437  17.767  1.00  0.00     0.112 C 
BRANCH  25  26
ATOM     26  C   UNL     1      -8.774 -17.365  18.835  1.00  0.00    -0.019 C 
ATOM     27  C   UNL     1      -7.665 -16.614  18.760  1.00  0.00     0.005 C 
ENDBRANCH  25  26
ENDBRANCH   1  25
TORSDOF 5
ENDMDL
MODEL 16
REMARK VINA RESULT:    -8.106      2.730      5.334
REMARK INTER + INTRA:         -11.129
REMARK INTER:                 -10.253
REMARK INTRA:                  -0.876
REMARK UNBOUND:                -0.654
REMARK SMILES C=CCN1C[C@H](C(=O)N(CC)CC)C=C2c3cccc4[nH]cc(c34)C[C@H]21
REMARK SMILES IDX 4 1 21 2 26 3 15 4 25 5 6 6 5 7 23 8 16 9 14 10 24 11 20 12
REMARK SMILES IDX 22 13 17 14 19 15 18 16 7 18 8 19 9 20 10 21 11 22 12 23
REMARK SMILES IDX 13 24 3 25 2 26 1 27
REMARK H PARENT 21 17
ROOT
ATOM      1  N   UNL     1     -14.962 -17.792  22.347  1.00  0.00    -0.291 NA
ATOM      2  N   UNL     1     -12.004 -19.470  27.337  1.00  0.00    -0.361 N 
ATOM      3  C   UNL     1     -14.026 -18.461  23.289  1.00  0.00     0.092 C 
ATOM      4  C   UNL     1     -12.524 -18.331  22.887  1.00  0.00    -0.026 C 
ATOM      5  C   UNL     1     -14.373 -18.207  24.804  1.00  0.00     0.061 C 
ATOM      6  C   UNL     1     -13.162 -17.616  20.563  1.00  0.00     0.116 C 
ATOM      7  C   UNL     1     -14.587 -18.052  20.950  1.00  0.00     0.103 C 
ATOM      8  C   UNL     1     -13.308 -18.741  25.696  1.00  0.00    -0.020 A 
ATOM      9  C   UNL     1     -11.511 -18.756  23.887  1.00  0.00    -0.011 A 
ATOM     10  C   UNL     1     -12.158 -17.922  21.654  1.00  0.00    -0.007 C 
ATOM     11  C   UNL     1     -12.006 -18.943  25.187  1.00  0.00     0.010 A 
ATOM     12  C   UNL     1     -11.199 -19.388  26.221  1.00  0.00     0.046 A 
ATOM     13  C   UNL     1     -13.288 -19.075  27.030  1.00  0.00     0.087 A 
ATOM     14  C   UNL     1     -10.153 -19.039  23.681  1.00  0.00     0.009 A 
ATOM     15  C   UNL     1      -9.844 -19.664  26.029  1.00  0.00     0.027 A 
ATOM     16  C   UNL     1      -9.339 -19.479  24.734  1.00  0.00     0.003 A 
ATOM     17  H   UNL     1     -11.692 -19.770  28.249  1.00  0.00     0.166 HD
ENDROOT
BRANCH   6  18
ATOM     18  C   UNL     1     -12.776 -18.327  19.250  1.00  0.00     0.230 C 
ATOM     19  O   UNL     1     -12.327 -19.478  19.263  1.00  0.00    -0.274 OA
ATOM     20  N   UNL     1     -12.987 -17.652  18.043  1.00  0.00    -0.343 N 
BRANCH  20  21
ATOM     21  C   UNL     1     -12.631 -18.359  16.808  1.00  0.00     0.116 C 
ATOM     22  C   UNL     1     -11.459 -17.733  16.067  1.00  0.00     0.027 C 
ENDBRANCH  20  21
BRANCH  20  23
ATOM     23  C   UNL     1     -13.373 -16.242  17.925  1.00  0.00     0.116 C 
ATOM     24  C   UNL     1     -14.846 -16.050  17.599  1.00  0.00     0.027 C 
ENDBRANCH  20  23
ENDBRANCH   6  18
BRANCH   1  25
ATOM     25  C   UNL     1     -15.378 -16.423  22.637  1.00  0.00     0.112 C 
BRANCH  25  26
ATOM     26  C   UNL     1     -15.767 -15.537  21.487  1.00  0.00    -0.019 C 
ATOM     27  C   UNL     1     -17.007 -15.077  21.266  1.00  0.00     0.005 C 
ENDBRANCH  25  26
ENDBRANCH   1  25
TORSDOF 5
ENDMDL
MODEL 17
REMARK VINA RESULT:    -8.035      2.150      7.157
REMARK INTER + INTRA:         -11.038
REMARK INTER:                 -10.322
REMARK INTRA:                  -0.717
REMARK UNBOUND:                -0.654
REMARK SMILES C=CCN1C[C@H](C(=O)N(CC)CC)C=C2c3cccc4[nH]cc(c34)C[C@H]21
REMARK SMILES IDX 4 1 21 2 26 3 15 4 25 5 6 6 5 7 23 8 16 9 14 10 24 11 20 12
REMARK SMILES IDX 22 13 17 14 19 15 18 16 7 18 8 19 9 20 10 21 11 22 12 23
REMARK SMILES IDX 13 24 3 25 2 26 1 27
REMARK H PARENT 21 17
ROOT
ATOM      1  N   UNL     1     -10.823 -18.700  19.360  1.00  0.00    -0.291 NA
ATOM      2  N   UNL     1     -15.967 -15.571  18.904  1.00  0.00    -0.361 N 
ATOM      3  C   UNL     1     -12.205 -18.195  19.575  1.00  0.00     0.092 C 
ATOM      4  C   UNL     1     -12.494 -17.747  21.041  1.00  0.00    -0.026 C 
ATOM      5  C   UNL     1     -12.705 -17.231  18.434  1.00  0.00     0.061 C 
ATOM      6  C   UNL     1     -10.445 -18.950  21.859  1.00  0.00     0.116 C 
ATOM      7  C   UNL     1     -10.403 -19.583  20.456  1.00  0.00     0.103 C 
ATOM      8  C   UNL     1     -14.011 -16.614  18.786  1.00  0.00    -0.020 A 
ATOM      9  C   UNL     1     -13.759 -17.010  21.292  1.00  0.00    -0.011 A 
ATOM     10  C   UNL     1     -11.667 -18.081  22.055  1.00  0.00    -0.007 C 
ATOM     11  C   UNL     1     -14.406 -16.538  20.140  1.00  0.00     0.010 A 
ATOM     12  C   UNL     1     -15.622 -15.876  20.203  1.00  0.00     0.046 A 
ATOM     13  C   UNL     1     -14.993 -16.012  18.034  1.00  0.00     0.087 A 
ATOM     14  C   UNL     1     -14.400 -16.780  22.518  1.00  0.00     0.009 A 
ATOM     15  C   UNL     1     -16.265 -15.634  21.418  1.00  0.00     0.027 A 
ATOM     16  C   UNL     1     -15.626 -16.101  22.575  1.00  0.00     0.003 A 
ATOM     17  H   UNL     1     -16.811 -15.087  18.633  1.00  0.00     0.166 HD
ENDROOT
BRANCH   6  18
ATOM     18  C   UNL     1     -10.406 -20.084  22.905  1.00  0.00     0.230 C 
ATOM     19  O   UNL     1     -11.374 -20.836  23.057  1.00  0.00    -0.274 OA
ATOM     20  N   UNL     1      -9.233 -20.264  23.647  1.00  0.00    -0.343 N 
BRANCH  20  21
ATOM     21  C   UNL     1      -9.217 -21.361  24.619  1.00  0.00     0.116 C 
ATOM     22  C   UNL     1      -8.328 -21.091  25.824  1.00  0.00     0.027 C 
ENDBRANCH  20  21
BRANCH  20  23
ATOM     23  C   UNL     1      -8.091 -19.344  23.648  1.00  0.00     0.116 C 
ATOM     24  C   UNL     1      -7.016 -19.723  22.642  1.00  0.00     0.027 C 
ENDBRANCH  20  23
ENDBRANCH   6  18
BRANCH   1  25
ATOM     25  C   UNL     1      -9.806 -17.763  18.890  1.00  0.00     0.112 C 
BRANCH  25  26
ATOM     26  C   UNL     1      -8.467 -17.763  19.569  1.00  0.00    -0.019 C 
ATOM     27  C   UNL     1      -7.495 -16.869  19.335  1.00  0.00     0.005 C 
ENDBRANCH  25  26
ENDBRANCH   1  25
TORSDOF 5
ENDMDL
MODEL 18
REMARK VINA RESULT:    -8.020      5.536      8.253
REMARK INTER + INTRA:         -11.018
REMARK INTER:                 -10.216
REMARK INTRA:                  -0.802
REMARK UNBOUND:                -0.654
REMARK SMILES C=CCN1C[C@H](C(=O)N(CC)CC)C=C2c3cccc4[nH]cc(c34)C[C@H]21
REMARK SMILES IDX 4 1 21 2 26 3 15 4 25 5 6 6 5 7 23 8 16 9 14 10 24 11 20 12
REMARK SMILES IDX 22 13 17 14 19 15 18 16 7 18 8 19 9 20 10 21 11 22 12 23
REMARK SMILES IDX 13 24 3 25 2 26 1 27
REMARK H PARENT 21 17
ROOT
ATOM      1  N   UNL     1     -15.868 -14.348  15.375  1.00  0.00    -0.291 NA
ATOM      2  N   UNL     1     -10.711 -17.393  16.139  1.00  0.00    -0.361 N 
ATOM      3  C   UNL     1     -14.614 -14.900  15.952  1.00  0.00     0.092 C 
ATOM      4  C   UNL     1     -14.810 -15.616  17.324  1.00  0.00    -0.026 C 
ATOM      5  C   UNL     1     -13.710 -15.639  14.896  1.00  0.00     0.061 C 
ATOM      6  C   UNL     1     -17.076 -14.564  17.600  1.00  0.00     0.116 C 
ATOM      7  C   UNL     1     -16.679 -13.680  16.403  1.00  0.00     0.103 C 
ATOM      8  C   UNL     1     -12.566 -16.326  15.554  1.00  0.00    -0.020 A 
ATOM      9  C   UNL     1     -13.665 -16.400  17.854  1.00  0.00    -0.011 A 
ATOM     10  C   UNL     1     -15.945 -15.468  18.039  1.00  0.00    -0.007 C 
ATOM     11  C   UNL     1     -12.645 -16.657  16.925  1.00  0.00     0.010 A 
ATOM     12  C   UNL     1     -11.487 -17.332  17.277  1.00  0.00     0.046 A 
ATOM     13  C   UNL     1     -11.359 -16.788  15.085  1.00  0.00     0.087 A 
ATOM     14  C   UNL     1     -13.461 -16.862  19.161  1.00  0.00     0.009 A 
ATOM     15  C   UNL     1     -11.277 -17.803  18.574  1.00  0.00     0.027 A 
ATOM     16  C   UNL     1     -12.291 -17.553  19.509  1.00  0.00     0.003 A 
ATOM     17  H   UNL     1      -9.801 -17.829  16.089  1.00  0.00     0.166 HD
ENDROOT
BRANCH   6  18
ATOM     18  C   UNL     1     -17.523 -13.644  18.755  1.00  0.00     0.230 C 
ATOM     19  O   UNL     1     -16.952 -12.569  18.964  1.00  0.00    -0.274 OA
ATOM     20  N   UNL     1     -18.616 -14.040  19.533  1.00  0.00    -0.343 N 
BRANCH  20  21
ATOM     21  C   UNL     1     -19.033 -13.138  20.612  1.00  0.00     0.116 C 
ATOM     22  C   UNL     1     -18.491 -13.534  21.977  1.00  0.00     0.027 C 
ENDBRANCH  20  21
BRANCH  20  23
ATOM     23  C   UNL     1     -19.266 -15.353  19.464  1.00  0.00     0.116 C 
ATOM     24  C   UNL     1     -20.769 -15.267  19.248  1.00  0.00     0.027 C 
ENDBRANCH  20  23
ENDBRANCH   6  18
BRANCH   1  25
ATOM     25  C   UNL     1     -16.617 -15.170  14.428  1.00  0.00     0.112 C 
BRANCH  25  26
ATOM     26  C   UNL     1     -17.567 -14.487  13.485  1.00  0.00    -0.019 C 
ATOM     27  C   UNL     1     -18.891 -14.695  13.456  1.00  0.00     0.005 C 
ENDBRANCH  25  26
ENDBRANCH   1  25
TORSDOF 5
ENDMDL
MODEL 19
REMARK VINA RESULT:    -7.950      3.012      7.912
REMARK INTER + INTRA:         -10.928
REMARK INTER:                 -10.711
REMARK INTRA:                  -0.217
REMARK UNBOUND:                -0.654
REMARK SMILES C=CCN1C[C@H](C(=O)N(CC)CC)C=C2c3cccc4[nH]cc(c34)C[C@H]21
REMARK SMILES IDX 4 1 21 2 26 3 15 4 25 5 6 6 5 7 23 8 16 9 14 10 24 11 20 12
REMARK SMILES IDX 22 13 17 14 19 15 18 16 7 18 8 19 9 20 10 21 11 22 12 23
REMARK SMILES IDX 13 24 3 25 2 26 1 27
REMARK H PARENT 21 17
ROOT
ATOM      1  N   UNL     1     -13.173 -17.126  21.438  1.00  0.00    -0.291 NA
ATOM      2  N   UNL     1     -14.024 -14.267  16.189  1.00  0.00    -0.361 N 
ATOM      3  C   UNL     1     -12.957 -16.511  20.101  1.00  0.00     0.092 C 
ATOM      4  C   UNL     1     -12.345 -17.487  19.049  1.00  0.00    -0.026 C 
ATOM      5  C   UNL     1     -14.163 -15.622  19.618  1.00  0.00     0.061 C 
ATOM      6  C   UNL     1     -11.670 -19.092  20.861  1.00  0.00     0.116 C 
ATOM      7  C   UNL     1     -12.025 -17.953  21.835  1.00  0.00     0.103 C 
ATOM      8  C   UNL     1     -13.977 -15.184  18.209  1.00  0.00    -0.020 A 
ATOM      9  C   UNL     1     -12.320 -17.035  17.633  1.00  0.00    -0.011 A 
ATOM     10  C   UNL     1     -11.791 -18.661  19.416  1.00  0.00    -0.007 C 
ATOM     11  C   UNL     1     -13.118 -15.914  17.358  1.00  0.00     0.010 A 
ATOM     12  C   UNL     1     -13.163 -15.340  16.097  1.00  0.00     0.046 A 
ATOM     13  C   UNL     1     -14.528 -14.165  17.467  1.00  0.00     0.087 A 
ATOM     14  C   UNL     1     -11.567 -17.552  16.570  1.00  0.00     0.009 A 
ATOM     15  C   UNL     1     -12.424 -15.852  15.030  1.00  0.00     0.027 A 
ATOM     16  C   UNL     1     -11.624 -16.972  15.295  1.00  0.00     0.003 A 
ATOM     17  H   UNL     1     -14.255 -13.651  15.423  1.00  0.00     0.166 HD
ENDROOT
BRANCH   6  18
ATOM     18  C   UNL     1     -10.237 -19.569  21.173  1.00  0.00     0.230 C 
ATOM     19  O   UNL     1      -9.344 -19.485  20.324  1.00  0.00    -0.274 OA
ATOM     20  N   UNL     1      -9.965 -20.060  22.455  1.00  0.00    -0.343 N 
BRANCH  20  21
ATOM     21  C   UNL     1      -8.589 -20.488  22.730  1.00  0.00     0.116 C 
ATOM     22  C   UNL     1      -7.705 -19.374  23.272  1.00  0.00     0.027 C 
ENDBRANCH  20  21
BRANCH  20  23
ATOM     23  C   UNL     1     -10.975 -20.337  23.480  1.00  0.00     0.116 C 
ATOM     24  C   UNL     1     -10.457 -21.211  24.612  1.00  0.00     0.027 C 
ENDBRANCH  20  23
ENDBRANCH   6  18
BRANCH   1  25
ATOM     25  C   UNL     1     -14.484 -17.695  21.738  1.00  0.00     0.112 C 
BRANCH  25  26
ATOM     26  C   UNL     1     -15.131 -17.345  23.048  1.00  0.00    -0.019 C 
ATOM     27  C   UNL     1     -14.919 -17.998  24.200  1.00  0.00     0.005 C 
ENDBRANCH  25  26
ENDBRANCH   1  25
TORSDOF 5
ENDMDL
MODEL 20
REMARK VINA RESULT:    -7.908      2.467      3.568
REMARK INTER + INTRA:         -10.873
REMARK INTER:                 -10.274
REMARK INTRA:                  -0.599
REMARK UNBOUND:                -0.654
REMARK SMILES C=CCN1C[C@H](C(=O)N(CC)CC)C=C2c3cccc4[nH]cc(c34)C[C@H]21
REMARK SMILES IDX 4 1 21 2 26 3 15 4 25 5 6 6 5 7 23 8 16 9 14 10 24 11 20 12
REMARK SMILES IDX 22 13 17 14 19 15 18 16 7 18 8 19 9 20 10 21 11 22 12 23
REMARK SMILES IDX 13 24 3 25 2 26 1 27
REMARK H PARENT 21 17
ROOT
ATOM      1  N   UNL     1     -10.613 -18.901  20.232  1.00  0.00    -0.291 NA
ATOM      2  N   UNL     1     -10.115 -20.479  26.038  1.00  0.00    -0.361 N 
ATOM      3  C   UNL     1     -10.684 -18.902  21.717  1.00  0.00     0.092 C 
ATOM      4  C   UNL     1     -12.122 -18.684  22.281  1.00  0.00    -0.026 C 
ATOM      5  C   UNL     1      -9.833 -20.046  22.385  1.00  0.00     0.061 C 
ATOM      6  C   UNL     1     -12.923 -17.859  20.046  1.00  0.00     0.116 C 
ATOM      7  C   UNL     1     -11.432 -17.823  19.660  1.00  0.00     0.103 C 
ATOM      8  C   UNL     1     -10.083 -20.117  23.849  1.00  0.00    -0.020 A 
ATOM      9  C   UNL     1     -12.325 -18.909  23.736  1.00  0.00    -0.011 A 
ATOM     10  C   UNL     1     -13.125 -18.234  21.498  1.00  0.00    -0.007 C 
ATOM     11  C   UNL     1     -11.276 -19.581  24.382  1.00  0.00     0.010 A 
ATOM     12  C   UNL     1     -11.291 -19.821  25.746  1.00  0.00     0.046 A 
ATOM     13  C   UNL     1      -9.374 -20.667  24.892  1.00  0.00     0.087 A 
ATOM     14  C   UNL     1     -13.397 -18.491  24.537  1.00  0.00     0.009 A 
ATOM     15  C   UNL     1     -12.357 -19.417  26.551  1.00  0.00     0.027 A 
ATOM     16  C   UNL     1     -13.411 -18.747  25.916  1.00  0.00     0.003 A 
ATOM     17  H   UNL     1      -9.844 -20.784  26.962  1.00  0.00     0.166 HD
ENDROOT
BRANCH   6  18
ATOM     18  C   UNL     1     -13.535 -16.475  19.748  1.00  0.00     0.230 C 
ATOM     19  O   UNL     1     -13.419 -15.546  20.553  1.00  0.00    -0.274 OA
ATOM     20  N   UNL     1     -14.188 -16.288  18.525  1.00  0.00    -0.343 N 
BRANCH  20  21
ATOM     21  C   UNL     1     -14.743 -14.957  18.258  1.00  0.00     0.116 C 
ATOM     22  C   UNL     1     -13.784 -14.037  17.516  1.00  0.00     0.027 C 
ENDBRANCH  20  21
BRANCH  20  23
ATOM     23  C   UNL     1     -14.506 -17.355  17.570  1.00  0.00     0.116 C 
ATOM     24  C   UNL     1     -13.577 -17.378  16.366  1.00  0.00     0.027 C 
ENDBRANCH  20  23
ENDBRANCH   6  18
BRANCH   1  25
ATOM     25  C   UNL     1     -10.690 -20.180  19.531  1.00  0.00     0.112 C 
BRANCH  25  26
ATOM     26  C   UNL     1     -11.843 -20.415  18.597  1.00  0.00    -0.019 C 
ATOM     27  C   UNL     1     -11.747 -20.429  17.259  1.00  0.00     0.005 C 
ENDBRANCH  25  26
ENDBRANCH   1  25
TORSDOF 5
ENDMDL
