MODEL 1
REMARK VINA RESULT:    -8.843      0.000      0.000
REMARK INTER + INTRA:         -12.162
REMARK INTER:                 -11.428
REMARK INTRA:                  -0.734
REMARK UNBOUND:                -0.734
REMARK SMILES C=CCN1C[C@H](C(=O)N(CC)CC)C=C2c3cccc4[nH]cc(c34)C[C@H]21
REMARK SMILES IDX 4 1 21 2 26 3 15 4 25 5 6 6 5 7 23 8 16 9 14 10 24 11 20 12
REMARK SMILES IDX 22 13 17 14 19 15 18 16 7 18 8 19 9 20 10 21 11 22 12 23
REMARK SMILES IDX 13 24 3 25 2 26 1 27
REMARK H PARENT 21 17
ROOT
ATOM      1  N   UNL     1     126.441 135.197 124.412  1.00  0.00    -0.291 NA
ATOM      2  N   UNL     1     127.278 133.055 118.829  1.00  0.00    -0.361 N 
ATOM      3  C   UNL     1     126.354 134.377 123.175  1.00  0.00     0.092 C 
ATOM      4  C   UNL     1     124.904 134.223 122.619  1.00  0.00    -0.026 C 
ATOM      5  C   UNL     1     127.478 134.707 122.123  1.00  0.00     0.061 C 
ATOM      6  C   UNL     1     123.937 135.018 124.799  1.00  0.00     0.116 C 
ATOM      7  C   UNL     1     125.364 134.858 125.353  1.00  0.00     0.103 C 
ATOM      8  C   UNL     1     127.238 133.995 120.839  1.00  0.00    -0.020 A 
ATOM      9  C   UNL     1     124.751 133.628 121.266  1.00  0.00    -0.011 A 
ATOM     10  C   UNL     1     123.826 134.544 123.366  1.00  0.00    -0.007 C 
ATOM     11  C   UNL     1     125.937 133.550 120.519  1.00  0.00     0.010 A 
ATOM     12  C   UNL     1     125.970 132.974 119.259  1.00  0.00     0.046 A 
ATOM     13  C   UNL     1     128.057 133.677 119.780  1.00  0.00     0.087 A 
ATOM     14  C   UNL     1     123.596 133.097 120.677  1.00  0.00     0.009 A 
ATOM     15  C   UNL     1     124.824 132.450 118.660  1.00  0.00     0.027 A 
ATOM     16  C   UNL     1     123.635 132.525 119.398  1.00  0.00     0.003 A 
ATOM     17  H   UNL     1     127.611 132.712 117.939  1.00  0.00     0.166 HD
ENDROOT
BRANCH   6  18
ATOM     18  C   UNL     1     122.971 134.234 125.711  1.00  0.00     0.230 C 
ATOM     19  O   UNL     1     122.778 133.027 125.537  1.00  0.00    -0.274 OA
ATOM     20  N   UNL     1     122.353 134.916 126.765  1.00  0.00    -0.343 N 
BRANCH  20  21
ATOM     21  C   UNL     1     121.456 134.142 127.629  1.00  0.00     0.116 C 
ATOM     22  C   UNL     1     121.318 134.717 129.031  1.00  0.00     0.027 C 
ENDBRANCH  20  21
BRANCH  20  23
ATOM     23  C   UNL     1     122.399 136.367 126.968  1.00  0.00     0.116 C 
ATOM     24  C   UNL     1     121.664 137.147 125.889  1.00  0.00     0.027 C 
ENDBRANCH  20  23
ENDBRANCH   6  18
BRANCH   1  25
ATOM     25  C   UNL     1     126.728 136.623 124.281  1.00  0.00     0.112 C 
BRANCH  25  26
ATOM     26  C   UNL     1     126.546 137.502 125.486  1.00  0.00    -0.019 C 
ATOM     27  C   UNL     1     125.620 138.465 125.591  1.00  0.00     0.005 C 
ENDBRANCH  25  26
ENDBRANCH   1  25
TORSDOF 5
ENDMDL
MODEL 2
REMARK VINA RESULT:    -8.756      2.140      7.489
REMARK INTER + INTRA:         -12.050
REMARK INTER:                 -11.135
REMARK INTRA:                  -0.915
REMARK UNBOUND:                -0.734
REMARK SMILES C=CCN1C[C@H](C(=O)N(CC)CC)C=C2c3cccc4[nH]cc(c34)C[C@H]21
REMARK SMILES IDX 4 1 21 2 26 3 15 4 25 5 6 6 5 7 23 8 16 9 14 10 24 11 20 12
REMARK SMILES IDX 22 13 17 14 19 15 18 16 7 18 8 19 9 20 10 21 11 22 12 23
REMARK SMILES IDX 13 24 3 25 2 26 1 27
REMARK H PARENT 21 17
ROOT
ATOM      1  N   UNL     1     124.361 133.021 122.445  1.00  0.00    -0.291 NA
ATOM      2  N   UNL     1     121.766 136.224 126.857  1.00  0.00    -0.361 N 
ATOM      3  C   UNL     1     124.140 133.892 123.630  1.00  0.00     0.092 C 
ATOM      4  C   UNL     1     124.832 135.287 123.527  1.00  0.00    -0.026 C 
ATOM      5  C   UNL     1     122.652 133.882 124.146  1.00  0.00     0.061 C 
ATOM      6  C   UNL     1     126.276 134.481 121.635  1.00  0.00     0.116 C 
ATOM      7  C   UNL     1     125.760 133.076 121.998  1.00  0.00     0.103 C 
ATOM      8  C   UNL     1     122.445 134.902 125.209  1.00  0.00    -0.020 A 
ATOM      9  C   UNL     1     124.469 136.305 124.547  1.00  0.00    -0.011 A 
ATOM     10  C   UNL     1     125.779 135.536 122.598  1.00  0.00    -0.007 C 
ATOM     11  C   UNL     1     123.327 136.001 125.304  1.00  0.00     0.010 A 
ATOM     12  C   UNL     1     122.888 136.825 126.328  1.00  0.00     0.046 A 
ATOM     13  C   UNL     1     121.486 135.056 126.182  1.00  0.00     0.087 A 
ATOM     14  C   UNL     1     125.150 137.486 124.874  1.00  0.00     0.009 A 
ATOM     15  C   UNL     1     123.553 138.007 126.656  1.00  0.00     0.027 A 
ATOM     16  C   UNL     1     124.695 138.320 125.906  1.00  0.00     0.003 A 
ATOM     17  H   UNL     1     121.226 136.594 127.626  1.00  0.00     0.166 HD
ENDROOT
BRANCH   6  18
ATOM     18  C   UNL     1     127.818 134.441 121.614  1.00  0.00     0.230 C 
ATOM     19  O   UNL     1     128.451 133.982 122.569  1.00  0.00    -0.274 OA
ATOM     20  N   UNL     1     128.478 134.900 120.469  1.00  0.00    -0.343 N 
BRANCH  20  21
ATOM     21  C   UNL     1     129.943 134.832 120.467  1.00  0.00     0.116 C 
ATOM     22  C   UNL     1     130.613 136.168 120.757  1.00  0.00     0.027 C 
ENDBRANCH  20  21
BRANCH  20  23
ATOM     23  C   UNL     1     127.834 135.594 119.349  1.00  0.00     0.116 C 
ATOM     24  C   UNL     1     127.692 134.726 118.108  1.00  0.00     0.027 C 
ENDBRANCH  20  23
ENDBRANCH   6  18
BRANCH   1  25
ATOM     25  C   UNL     1     123.365 133.034 121.377  1.00  0.00     0.112 C 
BRANCH  25  26
ATOM     26  C   UNL     1     123.770 132.545 120.016  1.00  0.00    -0.019 C 
ATOM     27  C   UNL     1     123.898 133.326 118.934  1.00  0.00     0.005 C 
ENDBRANCH  25  26
ENDBRANCH   1  25
TORSDOF 5
ENDMDL
MODEL 3
REMARK VINA RESULT:    -8.733      1.825      2.917
REMARK INTER + INTRA:         -12.021
REMARK INTER:                 -11.258
REMARK INTRA:                  -0.763
REMARK UNBOUND:                -0.734
REMARK SMILES C=CCN1C[C@H](C(=O)N(CC)CC)C=C2c3cccc4[nH]cc(c34)C[C@H]21
REMARK SMILES IDX 4 1 21 2 26 3 15 4 25 5 6 6 5 7 23 8 16 9 14 10 24 11 20 12
REMARK SMILES IDX 22 13 17 14 19 15 18 16 7 18 8 19 9 20 10 21 11 22 12 23
REMARK SMILES IDX 13 24 3 25 2 26 1 27
REMARK H PARENT 21 17
ROOT
ATOM      1  N   UNL     1     128.153 135.401 121.979  1.00  0.00    -0.291 NA
ATOM      2  N   UNL     1     127.850 131.884 117.081  1.00  0.00    -0.361 N 
ATOM      3  C   UNL     1     127.814 134.305 121.033  1.00  0.00     0.092 C 
ATOM      4  C   UNL     1     126.282 134.108 120.816  1.00  0.00    -0.026 C 
ATOM      5  C   UNL     1     128.714 134.290 119.742  1.00  0.00     0.061 C 
ATOM      6  C   UNL     1     125.771 135.482 122.858  1.00  0.00     0.116 C 
ATOM      7  C   UNL     1     127.277 135.376 123.159  1.00  0.00     0.103 C 
ATOM      8  C   UNL     1     128.218 133.297 118.752  1.00  0.00    -0.020 A 
ATOM      9  C   UNL     1     125.859 133.205 119.715  1.00  0.00    -0.011 A 
ATOM     10  C   UNL     1     125.375 134.673 121.642  1.00  0.00    -0.007 C 
ATOM     11  C   UNL     1     126.873 132.869 118.805  1.00  0.00     0.010 A 
ATOM     12  C   UNL     1     126.652 131.996 117.752  1.00  0.00     0.046 A 
ATOM     13  C   UNL     1     128.809 132.673 117.678  1.00  0.00     0.087 A 
ATOM     14  C   UNL     1     124.603 132.618 119.508  1.00  0.00     0.009 A 
ATOM     15  C   UNL     1     125.403 131.412 117.533  1.00  0.00     0.027 A 
ATOM     16  C   UNL     1     124.383 131.743 118.434  1.00  0.00     0.003 A 
ATOM     17  H   UNL     1     127.998 131.309 116.263  1.00  0.00     0.166 HD
ENDROOT
BRANCH   6  18
ATOM     18  C   UNL     1     124.992 135.013 124.105  1.00  0.00     0.230 C 
ATOM     19  O   UNL     1     124.654 133.832 124.231  1.00  0.00    -0.274 OA
ATOM     20  N   UNL     1     124.716 135.950 125.107  1.00  0.00    -0.343 N 
BRANCH  20  21
ATOM     21  C   UNL     1     123.993 135.473 126.290  1.00  0.00     0.116 C 
ATOM     22  C   UNL     1     122.578 136.022 126.398  1.00  0.00     0.027 C 
ENDBRANCH  20  21
BRANCH  20  23
ATOM     23  C   UNL     1     124.942 137.395 124.991  1.00  0.00     0.116 C 
ATOM     24  C   UNL     1     126.230 137.854 125.657  1.00  0.00     0.027 C 
ENDBRANCH  20  23
ENDBRANCH   6  18
BRANCH   1  25
ATOM     25  C   UNL     1     128.428 136.728 121.435  1.00  0.00     0.112 C 
BRANCH  25  26
ATOM     26  C   UNL     1     129.698 137.418 121.843  1.00  0.00    -0.019 C 
ATOM     27  C   UNL     1     129.754 138.530 122.590  1.00  0.00     0.005 C 
ENDBRANCH  25  26
ENDBRANCH   1  25
TORSDOF 5
ENDMDL
MODEL 4
REMARK VINA RESULT:    -8.685      2.267      7.475
REMARK INTER + INTRA:         -11.957
REMARK INTER:                 -11.597
REMARK INTRA:                  -0.361
REMARK UNBOUND:                -0.734
REMARK SMILES C=CCN1C[C@H](C(=O)N(CC)CC)C=C2c3cccc4[nH]cc(c34)C[C@H]21
REMARK SMILES IDX 4 1 21 2 26 3 15 4 25 5 6 6 5 7 23 8 16 9 14 10 24 11 20 12
REMARK SMILES IDX 22 13 17 14 19 15 18 16 7 18 8 19 9 20 10 21 11 22 12 23
REMARK SMILES IDX 13 24 3 25 2 26 1 27
REMARK H PARENT 21 17
ROOT
ATOM      1  N   UNL     1     124.166 133.257 122.841  1.00  0.00    -0.291 NA
ATOM      2  N   UNL     1     121.949 136.923 127.095  1.00  0.00    -0.361 N 
ATOM      3  C   UNL     1     124.045 134.220 123.967  1.00  0.00     0.092 C 
ATOM      4  C   UNL     1     124.824 135.553 123.745  1.00  0.00    -0.026 C 
ATOM      5  C   UNL     1     122.580 134.347 124.530  1.00  0.00     0.061 C 
ATOM      6  C   UNL     1     126.142 134.523 121.869  1.00  0.00     0.116 C 
ATOM      7  C   UNL     1     125.548 133.186 122.347  1.00  0.00     0.103 C 
ATOM      8  C   UNL     1     122.479 135.449 125.523  1.00  0.00    -0.020 A 
ATOM      9  C   UNL     1     124.566 136.661 124.701  1.00  0.00    -0.011 A 
ATOM     10  C   UNL     1     125.751 135.674 122.771  1.00  0.00    -0.007 C 
ATOM     11  C   UNL     1     123.434 136.489 125.513  1.00  0.00     0.010 A 
ATOM     12  C   UNL     1     123.088 137.409 126.490  1.00  0.00     0.046 A 
ATOM     13  C   UNL     1     121.567 135.734 126.513  1.00  0.00     0.087 A 
ATOM     14  C   UNL     1     125.334 137.813 124.922  1.00  0.00     0.009 A 
ATOM     15  C   UNL     1     123.841 138.563 126.712  1.00  0.00     0.027 A 
ATOM     16  C   UNL     1     124.973 138.745 125.906  1.00  0.00     0.003 A 
ATOM     17  H   UNL     1     121.462 137.382 127.852  1.00  0.00     0.166 HD
ENDROOT
BRANCH   6  18
ATOM     18  C   UNL     1     127.676 134.377 121.803  1.00  0.00     0.230 C 
ATOM     19  O   UNL     1     128.292 133.769 122.684  1.00  0.00    -0.274 OA
ATOM     20  N   UNL     1     128.347 134.915 120.699  1.00  0.00    -0.343 N 
BRANCH  20  21
ATOM     21  C   UNL     1     129.803 134.744 120.651  1.00  0.00     0.116 C 
ATOM     22  C   UNL     1     130.574 136.032 120.900  1.00  0.00     0.027 C 
ENDBRANCH  20  21
BRANCH  20  23
ATOM     23  C   UNL     1     127.735 135.775 119.681  1.00  0.00     0.116 C 
ATOM     24  C   UNL     1     127.354 135.026 118.414  1.00  0.00     0.027 C 
ENDBRANCH  20  23
ENDBRANCH   6  18
BRANCH   1  25
ATOM     25  C   UNL     1     123.134 133.264 121.807  1.00  0.00     0.112 C 
BRANCH  25  26
ATOM     26  C   UNL     1     121.828 132.582 122.096  1.00  0.00    -0.019 C 
ATOM     27  C   UNL     1     120.622 133.148 121.940  1.00  0.00     0.005 C 
ENDBRANCH  25  26
ENDBRANCH   1  25
TORSDOF 5
ENDMDL
MODEL 5
REMARK VINA RESULT:    -8.540      2.462      4.993
REMARK INTER + INTRA:         -11.771
REMARK INTER:                 -10.936
REMARK INTRA:                  -0.835
REMARK UNBOUND:                -0.734
REMARK SMILES C=CCN1C[C@H](C(=O)N(CC)CC)C=C2c3cccc4[nH]cc(c34)C[C@H]21
REMARK SMILES IDX 4 1 21 2 26 3 15 4 25 5 6 6 5 7 23 8 16 9 14 10 24 11 20 12
REMARK SMILES IDX 22 13 17 14 19 15 18 16 7 18 8 19 9 20 10 21 11 22 12 23
REMARK SMILES IDX 13 24 3 25 2 26 1 27
REMARK H PARENT 21 17
ROOT
ATOM      1  N   UNL     1     125.471 133.738 120.965  1.00  0.00    -0.291 NA
ATOM      2  N   UNL     1     129.834 137.301 118.792  1.00  0.00    -0.361 N 
ATOM      3  C   UNL     1     126.358 134.902 120.701  1.00  0.00     0.092 C 
ATOM      4  C   UNL     1     127.020 135.495 121.983  1.00  0.00    -0.026 C 
ATOM      5  C   UNL     1     127.297 134.705 119.453  1.00  0.00     0.061 C 
ATOM      6  C   UNL     1     125.390 134.265 123.449  1.00  0.00     0.116 C 
ATOM      7  C   UNL     1     124.626 133.969 122.145  1.00  0.00     0.103 C 
ATOM      8  C   UNL     1     128.285 135.811 119.343  1.00  0.00    -0.020 A 
ATOM      9  C   UNL     1     128.101 136.497 121.792  1.00  0.00    -0.011 A 
ATOM     10  C   UNL     1     126.580 135.172 123.218  1.00  0.00    -0.007 C 
ATOM     11  C   UNL     1     128.610 136.574 120.486  1.00  0.00     0.010 A 
ATOM     12  C   UNL     1     129.585 137.494 120.134  1.00  0.00     0.046 A 
ATOM     13  C   UNL     1     129.052 136.278 118.302  1.00  0.00     0.087 A 
ATOM     14  C   UNL     1     128.627 137.396 122.730  1.00  0.00     0.009 A 
ATOM     15  C   UNL     1     130.121 138.387 121.063  1.00  0.00     0.027 A 
ATOM     16  C   UNL     1     129.621 138.317 122.370  1.00  0.00     0.003 A 
ATOM     17  H   UNL     1     130.502 137.832 118.252  1.00  0.00     0.166 HD
ENDROOT
BRANCH   6  18
ATOM     18  C   UNL     1     124.407 134.898 124.455  1.00  0.00     0.230 C 
ATOM     19  O   UNL     1     123.608 135.769 124.095  1.00  0.00    -0.274 OA
ATOM     20  N   UNL     1     124.415 134.432 125.774  1.00  0.00    -0.343 N 
BRANCH  20  21
ATOM     21  C   UNL     1     123.456 135.037 126.705  1.00  0.00     0.116 C 
ATOM     22  C   UNL     1     122.133 134.290 126.782  1.00  0.00     0.027 C 
ENDBRANCH  20  21
BRANCH  20  23
ATOM     23  C   UNL     1     125.413 133.515 126.335  1.00  0.00     0.116 C 
ATOM     24  C   UNL     1     126.519 134.228 127.098  1.00  0.00     0.027 C 
ENDBRANCH  20  23
ENDBRANCH   6  18
BRANCH   1  25
ATOM     25  C   UNL     1     126.035 132.396 120.855  1.00  0.00     0.112 C 
BRANCH  25  26
ATOM     26  C   UNL     1     125.493 131.477 119.797  1.00  0.00    -0.019 C 
ATOM     27  C   UNL     1     125.974 131.387 118.549  1.00  0.00     0.005 C 
ENDBRANCH  25  26
ENDBRANCH   1  25
TORSDOF 5
ENDMDL
MODEL 6
REMARK VINA RESULT:    -8.496      2.353      4.675
REMARK INTER + INTRA:         -11.714
REMARK INTER:                 -11.335
REMARK INTRA:                  -0.379
REMARK UNBOUND:                -0.734
REMARK SMILES C=CCN1C[C@H](C(=O)N(CC)CC)C=C2c3cccc4[nH]cc(c34)C[C@H]21
REMARK SMILES IDX 4 1 21 2 26 3 15 4 25 5 6 6 5 7 23 8 16 9 14 10 24 11 20 12
REMARK SMILES IDX 22 13 17 14 19 15 18 16 7 18 8 19 9 20 10 21 11 22 12 23
REMARK SMILES IDX 13 24 3 25 2 26 1 27
REMARK H PARENT 21 17
ROOT
ATOM      1  N   UNL     1     124.994 134.558 121.444  1.00  0.00    -0.291 NA
ATOM      2  N   UNL     1     129.487 134.571 117.411  1.00  0.00    -0.361 N 
ATOM      3  C   UNL     1     126.186 134.944 120.643  1.00  0.00     0.092 C 
ATOM      4  C   UNL     1     127.449 135.260 121.502  1.00  0.00    -0.026 C 
ATOM      5  C   UNL     1     126.407 134.040 119.373  1.00  0.00     0.061 C 
ATOM      6  C   UNL     1     126.045 135.446 123.579  1.00  0.00     0.116 C 
ATOM      7  C   UNL     1     124.840 135.423 122.621  1.00  0.00     0.103 C 
ATOM      8  C   UNL     1     127.705 134.348 118.714  1.00  0.00    -0.020 A 
ATOM      9  C   UNL     1     128.740 135.417 120.784  1.00  0.00    -0.011 A 
ATOM     10  C   UNL     1     127.363 135.458 122.834  1.00  0.00    -0.007 C 
ATOM     11  C   UNL     1     128.735 134.969 119.454  1.00  0.00     0.010 A 
ATOM     12  C   UNL     1     129.845 135.094 118.635  1.00  0.00     0.046 A 
ATOM     13  C   UNL     1     128.189 134.111 117.449  1.00  0.00     0.087 A 
ATOM     14  C   UNL     1     129.927 135.998 121.251  1.00  0.00     0.009 A 
ATOM     15  C   UNL     1     131.035 135.663 119.093  1.00  0.00     0.027 A 
ATOM     16  C   UNL     1     131.051 136.113 120.420  1.00  0.00     0.003 A 
ATOM     17  H   UNL     1     130.097 134.526 116.607  1.00  0.00     0.166 HD
ENDROOT
BRANCH   6  18
ATOM     18  C   UNL     1     125.919 136.685 124.489  1.00  0.00     0.230 C 
ATOM     19  O   UNL     1     126.765 137.584 124.453  1.00  0.00    -0.274 OA
ATOM     20  N   UNL     1     124.802 136.783 125.326  1.00  0.00    -0.343 N 
BRANCH  20  21
ATOM     21  C   UNL     1     124.697 137.980 126.165  1.00  0.00     0.116 C 
ATOM     22  C   UNL     1     123.264 138.442 126.386  1.00  0.00     0.027 C 
ENDBRANCH  20  21
BRANCH  20  23
ATOM     23  C   UNL     1     123.825 135.713 125.551  1.00  0.00     0.116 C 
ATOM     24  C   UNL     1     124.202 134.789 126.699  1.00  0.00     0.027 C 
ENDBRANCH  20  23
ENDBRANCH   6  18
BRANCH   1  25
ATOM     25  C   UNL     1     124.744 133.138 121.678  1.00  0.00     0.112 C 
BRANCH  25  26
ATOM     26  C   UNL     1     123.435 132.558 121.221  1.00  0.00    -0.019 C 
ATOM     27  C   UNL     1     122.247 132.828 121.782  1.00  0.00     0.005 C 
ENDBRANCH  25  26
ENDBRANCH   1  25
TORSDOF 5
ENDMDL
MODEL 7
REMARK VINA RESULT:    -8.289      2.559      7.737
REMARK INTER + INTRA:         -11.446
REMARK INTER:                 -10.819
REMARK INTRA:                  -0.627
REMARK UNBOUND:                -0.734
REMARK SMILES C=CCN1C[C@H](C(=O)N(CC)CC)C=C2c3cccc4[nH]cc(c34)C[C@H]21
REMARK SMILES IDX 4 1 21 2 26 3 15 4 25 5 6 6 5 7 23 8 16 9 14 10 24 11 20 12
REMARK SMILES IDX 22 13 17 14 19 15 18 16 7 18 8 19 9 20 10 21 11 22 12 23
REMARK SMILES IDX 13 24 3 25 2 26 1 27
REMARK H PARENT 21 17
ROOT
ATOM      1  N   UNL     1     125.621 133.354 120.742  1.00  0.00    -0.291 NA
ATOM      2  N   UNL     1     122.599 135.003 125.703  1.00  0.00    -0.361 N 
ATOM      3  C   UNL     1     125.283 133.813 122.116  1.00  0.00     0.092 C 
ATOM      4  C   UNL     1     125.931 135.177 122.504  1.00  0.00    -0.026 C 
ATOM      5  C   UNL     1     123.763 133.627 122.482  1.00  0.00     0.061 C 
ATOM      6  C   UNL     1     127.537 135.014 120.577  1.00  0.00     0.116 C 
ATOM      7  C   UNL     1     127.046 133.560 120.447  1.00  0.00     0.103 C 
ATOM      8  C   UNL     1     123.443 134.265 123.787  1.00  0.00    -0.020 A 
ATOM      9  C   UNL     1     125.459 135.825 123.755  1.00  0.00    -0.011 A 
ATOM     10  C   UNL     1     126.934 135.713 121.776  1.00  0.00    -0.007 C 
ATOM     11  C   UNL     1     124.276 135.290 124.287  1.00  0.00     0.010 A 
ATOM     12  C   UNL     1     123.735 135.750 125.477  1.00  0.00     0.046 A 
ATOM     13  C   UNL     1     122.410 134.099 124.680  1.00  0.00     0.087 A 
ATOM     14  C   UNL     1     126.072 136.854 124.484  1.00  0.00     0.009 A 
ATOM     15  C   UNL     1     124.332 136.780 126.205  1.00  0.00     0.027 A 
ATOM     16  C   UNL     1     125.513 137.322 125.682  1.00  0.00     0.003 A 
ATOM     17  H   UNL     1     121.991 135.111 126.502  1.00  0.00     0.166 HD
ENDROOT
BRANCH   6  18
ATOM     18  C   UNL     1     129.077 134.999 120.669  1.00  0.00     0.230 C 
ATOM     19  O   UNL     1     129.649 134.429 121.604  1.00  0.00    -0.274 OA
ATOM     20  N   UNL     1     129.809 135.613 119.647  1.00  0.00    -0.343 N 
BRANCH  20  21
ATOM     21  C   UNL     1     131.271 135.566 119.748  1.00  0.00     0.116 C 
ATOM     22  C   UNL     1     131.844 136.584 120.724  1.00  0.00     0.027 C 
ENDBRANCH  20  21
BRANCH  20  23
ATOM     23  C   UNL     1     129.233 136.437 118.579  1.00  0.00     0.116 C 
ATOM     24  C   UNL     1     128.905 135.646 117.322  1.00  0.00     0.027 C 
ENDBRANCH  20  23
ENDBRANCH   6  18
BRANCH   1  25
ATOM     25  C   UNL     1     124.705 133.686 119.654  1.00  0.00     0.112 C 
BRANCH  25  26
ATOM     26  C   UNL     1     124.142 132.565 118.827  1.00  0.00    -0.019 C 
ATOM     27  C   UNL     1     124.878 131.705 118.109  1.00  0.00     0.005 C 
ENDBRANCH  25  26
ENDBRANCH   1  25
TORSDOF 5
ENDMDL
MODEL 8
REMARK VINA RESULT:    -8.150      2.631      4.843
REMARK INTER + INTRA:         -11.266
REMARK INTER:                 -10.570
REMARK INTRA:                  -0.696
REMARK UNBOUND:                -0.734
REMARK SMILES C=CCN1C[C@H](C(=O)N(CC)CC)C=C2c3cccc4[nH]cc(c34)C[C@H]21
REMARK SMILES IDX 4 1 21 2 26 3 15 4 25 5 6 6 5 7 23 8 16 9 14 10 24 11 20 12
REMARK SMILES IDX 22 13 17 14 19 15 18 16 7 18 8 19 9 20 10 21 11 22 12 23
REMARK SMILES IDX 13 24 3 25 2 26 1 27
REMARK H PARENT 21 17
ROOT
ATOM      1  N   UNL     1     125.580 134.453 122.049  1.00  0.00    -0.291 NA
ATOM      2  N   UNL     1     130.404 136.769 119.254  1.00  0.00    -0.361 N 
ATOM      3  C   UNL     1     126.612 135.392 121.536  1.00  0.00     0.092 C 
ATOM      4  C   UNL     1     127.316 136.227 122.650  1.00  0.00    -0.026 C 
ATOM      5  C   UNL     1     127.545 134.759 120.437  1.00  0.00     0.061 C 
ATOM      6  C   UNL     1     125.512 135.634 124.297  1.00  0.00     0.116 C 
ATOM      7  C   UNL     1     124.745 135.089 123.078  1.00  0.00     0.103 C 
ATOM      8  C   UNL     1     128.667 135.672 120.094  1.00  0.00    -0.020 A 
ATOM      9  C   UNL     1     128.518 137.008 122.260  1.00  0.00    -0.011 A 
ATOM     10  C   UNL     1     126.811 136.301 123.900  1.00  0.00    -0.007 C 
ATOM     11  C   UNL     1     129.061 136.672 121.011  1.00  0.00     0.010 A 
ATOM     12  C   UNL     1     130.152 137.343 120.482  1.00  0.00     0.046 A 
ATOM     13  C   UNL     1     129.510 135.750 119.009  1.00  0.00     0.087 A 
ATOM     14  C   UNL     1     129.133 138.059 122.955  1.00  0.00     0.009 A 
ATOM     15  C   UNL     1     130.777 138.385 121.169  1.00  0.00     0.027 A 
ATOM     16  C   UNL     1     130.243 138.728 122.419  1.00  0.00     0.003 A 
ATOM     17  H   UNL     1     131.145 137.054 118.630  1.00  0.00     0.166 HD
ENDROOT
BRANCH   6  18
ATOM     18  C   UNL     1     124.595 136.624 125.045  1.00  0.00     0.230 C 
ATOM     19  O   UNL     1     124.671 137.838 124.833  1.00  0.00    -0.274 OA
ATOM     20  N   UNL     1     123.649 136.108 125.937  1.00  0.00    -0.343 N 
BRANCH  20  21
ATOM     21  C   UNL     1     122.776 137.069 126.618  1.00  0.00     0.116 C 
ATOM     22  C   UNL     1     121.531 137.430 125.821  1.00  0.00     0.027 C 
ENDBRANCH  20  21
BRANCH  20  23
ATOM     23  C   UNL     1     123.575 134.708 126.367  1.00  0.00     0.116 C 
ATOM     24  C   UNL     1     122.411 133.951 125.746  1.00  0.00     0.027 C 
ENDBRANCH  20  23
ENDBRANCH   6  18
BRANCH   1  25
ATOM     25  C   UNL     1     125.972 133.074 122.329  1.00  0.00     0.112 C 
BRANCH  25  26
ATOM     26  C   UNL     1     125.421 131.983 121.456  1.00  0.00    -0.019 C 
ATOM     27  C   UNL     1     124.534 132.174 120.468  1.00  0.00     0.005 C 
ENDBRANCH  25  26
ENDBRANCH   1  25
TORSDOF 5
ENDMDL
MODEL 9
REMARK VINA RESULT:    -8.015      2.937      7.272
REMARK INTER + INTRA:         -11.091
REMARK INTER:                 -10.291
REMARK INTRA:                  -0.800
REMARK UNBOUND:                -0.734
REMARK SMILES C=CCN1C[C@H](C(=O)N(CC)CC)C=C2c3cccc4[nH]cc(c34)C[C@H]21
REMARK SMILES IDX 4 1 21 2 26 3 15 4 25 5 6 6 5 7 23 8 16 9 14 10 24 11 20 12
REMARK SMILES IDX 22 13 17 14 19 15 18 16 7 18 8 19 9 20 10 21 11 22 12 23
REMARK SMILES IDX 13 24 3 25 2 26 1 27
REMARK H PARENT 21 17
ROOT
ATOM      1  N   UNL     1     126.100 133.298 120.015  1.00  0.00    -0.291 NA
ATOM      2  N   UNL     1     121.947 133.771 124.372  1.00  0.00    -0.361 N 
ATOM      3  C   UNL     1     125.435 133.463 121.335  1.00  0.00     0.092 C 
ATOM      4  C   UNL     1     125.840 134.767 122.089  1.00  0.00    -0.026 C 
ATOM      5  C   UNL     1     123.900 133.113 121.311  1.00  0.00     0.061 C 
ATOM      6  C   UNL     1     127.824 135.078 120.577  1.00  0.00     0.116 C 
ATOM      7  C   UNL     1     127.526 133.647 120.090  1.00  0.00     0.103 C 
ATOM      8  C   UNL     1     123.248 133.468 122.599  1.00  0.00    -0.020 A 
ATOM      9  C   UNL     1     125.051 135.132 123.293  1.00  0.00    -0.011 A 
ATOM     10  C   UNL     1     126.913 135.495 121.710  1.00  0.00    -0.007 C 
ATOM     11  C   UNL     1     123.845 134.430 123.443  1.00  0.00     0.010 A 
ATOM     12  C   UNL     1     123.020 134.619 124.541  1.00  0.00     0.046 A 
ATOM     13  C   UNL     1     122.073 133.069 123.193  1.00  0.00     0.087 A 
ATOM     14  C   UNL     1     125.385 136.040 124.307  1.00  0.00     0.009 A 
ATOM     15  C   UNL     1     123.339 135.527 125.552  1.00  0.00     0.027 A 
ATOM     16  C   UNL     1     124.541 136.234 125.410  1.00  0.00     0.003 A 
ATOM     17  H   UNL     1     121.176 133.686 125.019  1.00  0.00     0.166 HD
ENDROOT
BRANCH   6  18
ATOM     18  C   UNL     1     129.303 135.145 121.010  1.00  0.00     0.230 C 
ATOM     19  O   UNL     1     129.806 134.238 121.682  1.00  0.00    -0.274 OA
ATOM     20  N   UNL     1     130.070 136.237 120.589  1.00  0.00    -0.343 N 
BRANCH  20  21
ATOM     21  C   UNL     1     131.477 136.265 120.999  1.00  0.00     0.116 C 
ATOM     22  C   UNL     1     132.441 135.891 119.882  1.00  0.00     0.027 C 
ENDBRANCH  20  21
BRANCH  20  23
ATOM     23  C   UNL     1     129.538 137.428 119.920  1.00  0.00     0.116 C 
ATOM     24  C   UNL     1     129.637 138.687 120.768  1.00  0.00     0.027 C 
ENDBRANCH  20  23
ENDBRANCH   6  18
BRANCH   1  25
ATOM     25  C   UNL     1     125.405 133.772 118.822  1.00  0.00     0.112 C 
BRANCH  25  26
ATOM     26  C   UNL     1     124.686 135.089 118.890  1.00  0.00    -0.019 C 
ATOM     27  C   UNL     1     125.189 136.254 118.456  1.00  0.00     0.005 C 
ENDBRANCH  25  26
ENDBRANCH   1  25
TORSDOF 5
ENDMDL
MODEL 10
REMARK VINA RESULT:    -8.008      2.337      5.075
REMARK INTER + INTRA:         -11.083
REMARK INTER:                 -10.870
REMARK INTRA:                  -0.213
REMARK UNBOUND:                -0.734
REMARK SMILES C=CCN1C[C@H](C(=O)N(CC)CC)C=C2c3cccc4[nH]cc(c34)C[C@H]21
REMARK SMILES IDX 4 1 21 2 26 3 15 4 25 5 6 6 5 7 23 8 16 9 14 10 24 11 20 12
REMARK SMILES IDX 22 13 17 14 19 15 18 16 7 18 8 19 9 20 10 21 11 22 12 23
REMARK SMILES IDX 13 24 3 25 2 26 1 27
REMARK H PARENT 21 17
ROOT
ATOM      1  N   UNL     1     124.770 134.185 120.753  1.00  0.00    -0.291 NA
ATOM      2  N   UNL     1     129.118 136.905 117.567  1.00  0.00    -0.361 N 
ATOM      3  C   UNL     1     125.975 134.966 120.368  1.00  0.00     0.092 C 
ATOM      4  C   UNL     1     127.290 134.474 121.047  1.00  0.00    -0.026 C 
ATOM      5  C   UNL     1     126.054 135.280 118.827  1.00  0.00     0.061 C 
ATOM      6  C   UNL     1     125.978 133.152 122.734  1.00  0.00     0.116 C 
ATOM      7  C   UNL     1     124.751 133.911 122.196  1.00  0.00     0.103 C 
ATOM      8  C   UNL     1     127.359 135.898 118.471  1.00  0.00    -0.020 A 
ATOM      9  C   UNL     1     128.570 135.035 120.542  1.00  0.00    -0.011 A 
ATOM     10  C   UNL     1     127.266 133.632 122.102  1.00  0.00    -0.007 C 
ATOM     11  C   UNL     1     128.475 135.713 119.317  1.00  0.00     0.010 A 
ATOM     12  C   UNL     1     129.569 136.336 118.738  1.00  0.00     0.046 A 
ATOM     13  C   UNL     1     127.777 136.642 117.392  1.00  0.00     0.087 A 
ATOM     14  C   UNL     1     129.829 135.015 121.158  1.00  0.00     0.009 A 
ATOM     15  C   UNL     1     130.829 136.314 119.338  1.00  0.00     0.027 A 
ATOM     16  C   UNL     1     130.935 135.639 120.562  1.00  0.00     0.003 A 
ATOM     17  H   UNL     1     129.694 137.432 116.926  1.00  0.00     0.166 HD
ENDROOT
BRANCH   6  18
ATOM     18  C   UNL     1     126.022 133.324 124.266  1.00  0.00     0.230 C 
ATOM     19  O   UNL     1     126.117 132.343 125.010  1.00  0.00    -0.274 OA
ATOM     20  N   UNL     1     125.993 134.622 124.790  1.00  0.00    -0.343 N 
BRANCH  20  21
ATOM     21  C   UNL     1     126.057 134.758 126.248  1.00  0.00     0.116 C 
ATOM     22  C   UNL     1     124.695 134.941 126.901  1.00  0.00     0.027 C 
ENDBRANCH  20  21
BRANCH  20  23
ATOM     23  C   UNL     1     125.735 135.836 124.010  1.00  0.00     0.116 C 
ATOM     24  C   UNL     1     126.923 136.787 123.971  1.00  0.00     0.027 C 
ENDBRANCH  20  23
ENDBRANCH   6  18
BRANCH   1  25
ATOM     25  C   UNL     1     124.364 133.070 119.901  1.00  0.00     0.112 C 
BRANCH  25  26
ATOM     26  C   UNL     1     125.242 131.853 119.852  1.00  0.00    -0.019 C 
ATOM     27  C   UNL     1     126.069 131.552 118.840  1.00  0.00     0.005 C 
ENDBRANCH  25  26
ENDBRANCH   1  25
TORSDOF 5
ENDMDL
MODEL 11
REMARK VINA RESULT:    -7.967      2.571      3.852
REMARK INTER + INTRA:         -11.030
REMARK INTER:                 -10.989
REMARK INTRA:                  -0.042
REMARK UNBOUND:                -0.734
REMARK SMILES C=CCN1C[C@H](C(=O)N(CC)CC)C=C2c3cccc4[nH]cc(c34)C[C@H]21
REMARK SMILES IDX 4 1 21 2 26 3 15 4 25 5 6 6 5 7 23 8 16 9 14 10 24 11 20 12
REMARK SMILES IDX 22 13 17 14 19 15 18 16 7 18 8 19 9 20 10 21 11 22 12 23
REMARK SMILES IDX 13 24 3 25 2 26 1 27
REMARK H PARENT 21 17
ROOT
ATOM      1  N   UNL     1     128.568 135.597 121.352  1.00  0.00    -0.291 NA
ATOM      2  N   UNL     1     127.788 131.570 116.922  1.00  0.00    -0.361 N 
ATOM      3  C   UNL     1     128.115 134.423 120.560  1.00  0.00     0.092 C 
ATOM      4  C   UNL     1     126.565 134.296 120.448  1.00  0.00    -0.026 C 
ATOM      5  C   UNL     1     128.936 134.207 119.234  1.00  0.00     0.061 C 
ATOM      6  C   UNL     1     126.250 135.921 122.339  1.00  0.00     0.116 C 
ATOM      7  C   UNL     1     127.763 135.759 122.571  1.00  0.00     0.103 C 
ATOM      8  C   UNL     1     128.330 133.139 118.395  1.00  0.00    -0.020 A 
ATOM      9  C   UNL     1     126.030 133.301 119.483  1.00  0.00    -0.011 A 
ATOM     10  C   UNL     1     125.740 135.004 121.249  1.00  0.00    -0.007 C 
ATOM     11  C   UNL     1     126.969 132.802 118.568  1.00  0.00     0.010 A 
ATOM     12  C   UNL     1     126.639 131.830 117.637  1.00  0.00     0.046 A 
ATOM     13  C   UNL     1     128.822 132.363 117.371  1.00  0.00     0.087 A 
ATOM     14  C   UNL     1     124.734 132.770 119.412  1.00  0.00     0.009 A 
ATOM     15  C   UNL     1     125.350 131.301 117.552  1.00  0.00     0.027 A 
ATOM     16  C   UNL     1     124.404 131.794 118.462  1.00  0.00     0.003 A 
ATOM     17  H   UNL     1     127.856 130.899 116.170  1.00  0.00     0.166 HD
ENDROOT
BRANCH   6  18
ATOM     18  C   UNL     1     125.522 135.645 123.671  1.00  0.00     0.230 C 
ATOM     19  O   UNL     1     124.636 136.404 124.076  1.00  0.00    -0.274 OA
ATOM     20  N   UNL     1     125.862 134.491 124.387  1.00  0.00    -0.343 N 
BRANCH  20  21
ATOM     21  C   UNL     1     125.141 134.242 125.638  1.00  0.00     0.116 C 
ATOM     22  C   UNL     1     125.994 134.447 126.882  1.00  0.00     0.027 C 
ENDBRANCH  20  21
BRANCH  20  23
ATOM     23  C   UNL     1     126.991 133.610 124.071  1.00  0.00     0.116 C 
ATOM     24  C   UNL     1     126.565 132.297 123.432  1.00  0.00     0.027 C 
ENDBRANCH  20  23
ENDBRANCH   6  18
BRANCH   1  25
ATOM     25  C   UNL     1     128.881 136.835 120.643  1.00  0.00     0.112 C 
BRANCH  25  26
ATOM     26  C   UNL     1     130.069 137.635 121.095  1.00  0.00    -0.019 C 
ATOM     27  C   UNL     1     130.046 138.538 122.086  1.00  0.00     0.005 C 
ENDBRANCH  25  26
ENDBRANCH   1  25
TORSDOF 5
ENDMDL
MODEL 12
REMARK VINA RESULT:    -7.813      2.673      4.047
REMARK INTER + INTRA:         -10.831
REMARK INTER:                  -9.907
REMARK INTRA:                  -0.924
REMARK UNBOUND:                -0.734
REMARK SMILES C=CCN1C[C@H](C(=O)N(CC)CC)C=C2c3cccc4[nH]cc(c34)C[C@H]21
REMARK SMILES IDX 4 1 21 2 26 3 15 4 25 5 6 6 5 7 23 8 16 9 14 10 24 11 20 12
REMARK SMILES IDX 22 13 17 14 19 15 18 16 7 18 8 19 9 20 10 21 11 22 12 23
REMARK SMILES IDX 13 24 3 25 2 26 1 27
REMARK H PARENT 21 17
ROOT
ATOM      1  N   UNL     1     127.196 133.807 123.222  1.00  0.00    -0.291 NA
ATOM      2  N   UNL     1     130.849 136.099 118.996  1.00  0.00    -0.361 N 
ATOM      3  C   UNL     1     127.806 134.179 121.918  1.00  0.00     0.092 C 
ATOM      4  C   UNL     1     126.830 134.921 120.953  1.00  0.00    -0.026 C 
ATOM      5  C   UNL     1     129.255 134.779 122.052  1.00  0.00     0.061 C 
ATOM      6  C   UNL     1     124.852 134.200 122.325  1.00  0.00     0.116 C 
ATOM      7  C   UNL     1     125.842 133.264 123.042  1.00  0.00     0.103 C 
ATOM      8  C   UNL     1     129.743 135.300 120.747  1.00  0.00    -0.020 A 
ATOM      9  C   UNL     1     127.415 135.539 119.735  1.00  0.00    -0.011 A 
ATOM     10  C   UNL     1     125.499 134.938 121.173  1.00  0.00    -0.007 C 
ATOM     11  C   UNL     1     128.814 135.646 119.741  1.00  0.00     0.010 A 
ATOM     12  C   UNL     1     129.514 136.152 118.657  1.00  0.00     0.046 A 
ATOM     13  C   UNL     1     131.000 135.586 120.266  1.00  0.00     0.087 A 
ATOM     14  C   UNL     1     126.752 135.973 118.579  1.00  0.00     0.009 A 
ATOM     15  C   UNL     1     128.863 136.595 117.504  1.00  0.00     0.027 A 
ATOM     16  C   UNL     1     127.465 136.494 117.489  1.00  0.00     0.003 A 
ATOM     17  H   UNL     1     131.605 136.401 118.399  1.00  0.00     0.166 HD
ENDROOT
BRANCH   6  18
ATOM     18  C   UNL     1     123.657 133.358 121.834  1.00  0.00     0.230 C 
ATOM     19  O   UNL     1     123.735 132.695 120.795  1.00  0.00    -0.274 OA
ATOM     20  N   UNL     1     122.497 133.331 122.617  1.00  0.00    -0.343 N 
BRANCH  20  21
ATOM     21  C   UNL     1     121.383 132.507 122.137  1.00  0.00     0.116 C 
ATOM     22  C   UNL     1     120.142 133.311 121.780  1.00  0.00     0.027 C 
ENDBRANCH  20  21
BRANCH  20  23
ATOM     23  C   UNL     1     122.249 134.189 123.780  1.00  0.00     0.116 C 
ATOM     24  C   UNL     1     122.783 133.606 125.079  1.00  0.00     0.027 C 
ENDBRANCH  20  23
ENDBRANCH   6  18
BRANCH   1  25
ATOM     25  C   UNL     1     127.355 134.722 124.350  1.00  0.00     0.112 C 
BRANCH  25  26
ATOM     26  C   UNL     1     126.578 134.449 125.606  1.00  0.00    -0.019 C 
ATOM     27  C   UNL     1     125.864 135.367 126.274  1.00  0.00     0.005 C 
ENDBRANCH  25  26
ENDBRANCH   1  25
TORSDOF 5
ENDMDL
MODEL 13
REMARK VINA RESULT:    -7.640      2.486      5.217
REMARK INTER + INTRA:         -10.608
REMARK INTER:                 -10.895
REMARK INTRA:                   0.288
REMARK UNBOUND:                -0.734
REMARK SMILES C=CCN1C[C@H](C(=O)N(CC)CC)C=C2c3cccc4[nH]cc(c34)C[C@H]21
REMARK SMILES IDX 4 1 21 2 26 3 15 4 25 5 6 6 5 7 23 8 16 9 14 10 24 11 20 12
REMARK SMILES IDX 22 13 17 14 19 15 18 16 7 18 8 19 9 20 10 21 11 22 12 23
REMARK SMILES IDX 13 24 3 25 2 26 1 27
REMARK H PARENT 21 17
ROOT
ATOM      1  N   UNL     1     125.061 133.665 120.012  1.00  0.00    -0.291 NA
ATOM      2  N   UNL     1     129.670 137.090 118.146  1.00  0.00    -0.361 N 
ATOM      3  C   UNL     1     126.046 134.770 119.869  1.00  0.00     0.092 C 
ATOM      4  C   UNL     1     126.804 135.116 121.188  1.00  0.00    -0.026 C 
ATOM      5  C   UNL     1     126.919 134.666 118.563  1.00  0.00     0.061 C 
ATOM      6  C   UNL     1     125.114 133.845 122.546  1.00  0.00     0.116 C 
ATOM      7  C   UNL     1     124.282 133.804 121.251  1.00  0.00     0.103 C 
ATOM      8  C   UNL     1     128.004 135.683 118.560  1.00  0.00    -0.020 A 
ATOM      9  C   UNL     1     127.968 136.033 121.085  1.00  0.00    -0.011 A 
ATOM     10  C   UNL     1     126.376 134.664 122.386  1.00  0.00    -0.007 C 
ATOM     11  C   UNL     1     128.439 136.246 119.780  1.00  0.00     0.010 A 
ATOM     12  C   UNL     1     129.485 137.114 119.511  1.00  0.00     0.046 A 
ATOM     13  C   UNL     1     128.778 136.220 117.557  1.00  0.00     0.087 A 
ATOM     14  C   UNL     1     128.609 136.740 122.112  1.00  0.00     0.009 A 
ATOM     15  C   UNL     1     130.135 137.817 120.527  1.00  0.00     0.027 A 
ATOM     16  C   UNL     1     129.674 137.610 121.834  1.00  0.00     0.003 A 
ATOM     17  H   UNL     1     130.367 137.629 117.652  1.00  0.00     0.166 HD
ENDROOT
BRANCH   6  18
ATOM     18  C   UNL     1     124.229 134.417 123.673  1.00  0.00     0.230 C 
ATOM     19  O   UNL     1     124.689 135.221 124.490  1.00  0.00    -0.274 OA
ATOM     20  N   UNL     1     122.884 134.033 123.721  1.00  0.00    -0.343 N 
BRANCH  20  21
ATOM     21  C   UNL     1     122.062 134.608 124.790  1.00  0.00     0.116 C 
ATOM     22  C   UNL     1     122.045 133.769 126.060  1.00  0.00     0.027 C 
ENDBRANCH  20  21
BRANCH  20  23
ATOM     23  C   UNL     1     122.281 132.982 122.897  1.00  0.00     0.116 C 
ATOM     24  C   UNL     1     120.906 133.354 122.364  1.00  0.00     0.027 C 
ENDBRANCH  20  23
ENDBRANCH   6  18
BRANCH   1  25
ATOM     25  C   UNL     1     125.490 132.306 119.695  1.00  0.00     0.112 C 
BRANCH  25  26
ATOM     26  C   UNL     1     125.004 131.683 118.417  1.00  0.00    -0.019 C 
ATOM     27  C   UNL     1     125.796 131.103 117.504  1.00  0.00     0.005 C 
ENDBRANCH  25  26
ENDBRANCH   1  25
TORSDOF 5
ENDMDL
MODEL 14
REMARK VINA RESULT:    -7.627      2.761      5.301
REMARK INTER + INTRA:         -10.591
REMARK INTER:                 -10.003
REMARK INTRA:                  -0.588
REMARK UNBOUND:                -0.734
REMARK SMILES C=CCN1C[C@H](C(=O)N(CC)CC)C=C2c3cccc4[nH]cc(c34)C[C@H]21
REMARK SMILES IDX 4 1 21 2 26 3 15 4 25 5 6 6 5 7 23 8 16 9 14 10 24 11 20 12
REMARK SMILES IDX 22 13 17 14 19 15 18 16 7 18 8 19 9 20 10 21 11 22 12 23
REMARK SMILES IDX 13 24 3 25 2 26 1 27
REMARK H PARENT 21 17
ROOT
ATOM      1  N   UNL     1     123.710 136.255 125.433  1.00  0.00    -0.291 NA
ATOM      2  N   UNL     1     127.011 132.952 121.605  1.00  0.00    -0.361 N 
ATOM      3  C   UNL     1     124.564 135.829 124.292  1.00  0.00     0.092 C 
ATOM      4  C   UNL     1     125.891 136.638 124.160  1.00  0.00    -0.026 C 
ATOM      5  C   UNL     1     124.676 134.265 124.142  1.00  0.00     0.061 C 
ATOM      6  C   UNL     1     125.011 138.422 125.696  1.00  0.00     0.116 C 
ATOM      7  C   UNL     1     123.650 137.720 125.534  1.00  0.00     0.103 C 
ATOM      8  C   UNL     1     125.680 133.895 123.110  1.00  0.00    -0.020 A 
ATOM      9  C   UNL     1     126.909 136.127 123.205  1.00  0.00    -0.011 A 
ATOM     10  C   UNL     1     126.079 137.797 124.826  1.00  0.00    -0.007 C 
ATOM     11  C   UNL     1     126.690 134.815 122.755  1.00  0.00     0.010 A 
ATOM     12  C   UNL     1     127.521 134.213 121.824  1.00  0.00     0.046 A 
ATOM     13  C   UNL     1     125.893 132.746 122.384  1.00  0.00     0.087 A 
ATOM     14  C   UNL     1     128.014 136.803 122.670  1.00  0.00     0.009 A 
ATOM     15  C   UNL     1     128.628 134.875 121.290  1.00  0.00     0.027 A 
ATOM     16  C   UNL     1     128.856 136.185 121.735  1.00  0.00     0.003 A 
ATOM     17  H   UNL     1     127.407 132.275 120.969  1.00  0.00     0.166 HD
ENDROOT
BRANCH   6  18
ATOM     18  C   UNL     1     124.831 139.915 125.354  1.00  0.00     0.230 C 
ATOM     19  O   UNL     1     123.917 140.288 124.611  1.00  0.00    -0.274 OA
ATOM     20  N   UNL     1     125.702 140.840 125.940  1.00  0.00    -0.343 N 
BRANCH  20  21
ATOM     21  C   UNL     1     125.496 142.255 125.614  1.00  0.00     0.116 C 
ATOM     22  C   UNL     1     124.523 142.956 126.550  1.00  0.00     0.027 C 
ENDBRANCH  20  21
BRANCH  20  23
ATOM     23  C   UNL     1     126.900 140.493 126.712  1.00  0.00     0.116 C 
ATOM     24  C   UNL     1     127.814 141.682 126.967  1.00  0.00     0.027 C 
ENDBRANCH  20  23
ENDBRANCH   6  18
BRANCH   1  25
ATOM     25  C   UNL     1     123.844 135.548 126.703  1.00  0.00     0.112 C 
BRANCH  25  26
ATOM     26  C   UNL     1     122.643 134.830 127.251  1.00  0.00    -0.019 C 
ATOM     27  C   UNL     1     121.712 134.223 126.501  1.00  0.00     0.005 C 
ENDBRANCH  25  26
ENDBRANCH   1  25
TORSDOF 5
ENDMDL
MODEL 15
REMARK VINA RESULT:    -7.453      2.741      4.825
REMARK INTER + INTRA:         -10.366
REMARK INTER:                 -10.673
REMARK INTRA:                   0.307
REMARK UNBOUND:                -0.734
REMARK SMILES C=CCN1C[C@H](C(=O)N(CC)CC)C=C2c3cccc4[nH]cc(c34)C[C@H]21
REMARK SMILES IDX 4 1 21 2 26 3 15 4 25 5 6 6 5 7 23 8 16 9 14 10 24 11 20 12
REMARK SMILES IDX 22 13 17 14 19 15 18 16 7 18 8 19 9 20 10 21 11 22 12 23
REMARK SMILES IDX 13 24 3 25 2 26 1 27
REMARK H PARENT 21 17
ROOT
ATOM      1  N   UNL     1     129.393 135.030 120.142  1.00  0.00    -0.291 NA
ATOM      2  N   UNL     1     126.089 131.068 117.005  1.00  0.00    -0.361 N 
ATOM      3  C   UNL     1     128.377 134.015 119.755  1.00  0.00     0.092 C 
ATOM      4  C   UNL     1     126.908 134.446 120.052  1.00  0.00    -0.026 C 
ATOM      5  C   UNL     1     128.648 133.363 118.348  1.00  0.00     0.061 C 
ATOM      6  C   UNL     1     127.705 136.286 121.567  1.00  0.00     0.116 C 
ATOM      7  C   UNL     1     129.087 135.616 121.455  1.00  0.00     0.103 C 
ATOM      8  C   UNL     1     127.514 132.496 117.930  1.00  0.00    -0.020 A 
ATOM      9  C   UNL     1     125.823 133.606 119.482  1.00  0.00    -0.011 A 
ATOM     10  C   UNL     1     126.630 135.494 120.856  1.00  0.00    -0.007 C 
ATOM     11  C   UNL     1     126.235 132.697 118.496  1.00  0.00     0.010 A 
ATOM     12  C   UNL     1     125.352 131.808 117.904  1.00  0.00     0.046 A 
ATOM     13  C   UNL     1     127.404 131.480 117.010  1.00  0.00     0.087 A 
ATOM     14  C   UNL     1     124.468 133.577 119.843  1.00  0.00     0.009 A 
ATOM     15  C   UNL     1     124.001 131.776 118.250  1.00  0.00     0.027 A 
ATOM     16  C   UNL     1     123.578 132.681 119.234  1.00  0.00     0.003 A 
ATOM     17  H   UNL     1     125.713 130.334 116.423  1.00  0.00     0.166 HD
ENDROOT
BRANCH   6  18
ATOM     18  C   UNL     1     127.365 136.451 123.063  1.00  0.00     0.230 C 
ATOM     19  O   UNL     1     127.701 137.467 123.679  1.00  0.00    -0.274 OA
ATOM     20  N   UNL     1     126.632 135.438 123.692  1.00  0.00    -0.343 N 
BRANCH  20  21
ATOM     21  C   UNL     1     126.305 135.630 125.109  1.00  0.00     0.116 C 
ATOM     22  C   UNL     1     124.858 136.037 125.347  1.00  0.00     0.027 C 
ENDBRANCH  20  21
BRANCH  20  23
ATOM     23  C   UNL     1     126.315 134.137 123.097  1.00  0.00     0.116 C 
ATOM     24  C   UNL     1     127.302 133.045 123.480  1.00  0.00     0.027 C 
ENDBRANCH  20  23
ENDBRANCH   6  18
BRANCH   1  25
ATOM     25  C   UNL     1     129.850 135.978 119.129  1.00  0.00     0.112 C 
BRANCH  25  26
ATOM     26  C   UNL     1     128.919 137.081 118.711  1.00  0.00    -0.019 C 
ATOM     27  C   UNL     1     128.052 136.999 117.691  1.00  0.00     0.005 C 
ENDBRANCH  25  26
ENDBRANCH   1  25
TORSDOF 5
ENDMDL
MODEL 16
REMARK VINA RESULT:    -7.413      2.882      7.509
REMARK INTER + INTRA:         -10.314
REMARK INTER:                 -10.952
REMARK INTRA:                   0.638
REMARK UNBOUND:                -0.734
REMARK SMILES C=CCN1C[C@H](C(=O)N(CC)CC)C=C2c3cccc4[nH]cc(c34)C[C@H]21
REMARK SMILES IDX 4 1 21 2 26 3 15 4 25 5 6 6 5 7 23 8 16 9 14 10 24 11 20 12
REMARK SMILES IDX 22 13 17 14 19 15 18 16 7 18 8 19 9 20 10 21 11 22 12 23
REMARK SMILES IDX 13 24 3 25 2 26 1 27
REMARK H PARENT 21 17
ROOT
ATOM      1  N   UNL     1     124.106 132.520 121.356  1.00  0.00    -0.291 NA
ATOM      2  N   UNL     1     126.298 136.702 125.119  1.00  0.00    -0.361 N 
ATOM      3  C   UNL     1     125.023 133.417 122.107  1.00  0.00     0.092 C 
ATOM      4  C   UNL     1     125.950 134.281 121.197  1.00  0.00    -0.026 C 
ATOM      5  C   UNL     1     124.328 134.159 123.309  1.00  0.00     0.061 C 
ATOM      6  C   UNL     1     125.446 132.815 119.218  1.00  0.00     0.116 C 
ATOM      7  C   UNL     1     124.800 131.862 120.240  1.00  0.00     0.103 C 
ATOM      8  C   UNL     1     125.234 135.175 123.910  1.00  0.00    -0.020 A 
ATOM      9  C   UNL     1     126.721 135.371 121.848  1.00  0.00    -0.011 A 
ATOM     10  C   UNL     1     126.105 134.003 119.885  1.00  0.00    -0.007 C 
ATOM     11  C   UNL     1     126.305 135.694 123.148  1.00  0.00     0.010 A 
ATOM     12  C   UNL     1     126.955 136.653 123.908  1.00  0.00     0.046 A 
ATOM     13  C   UNL     1     125.248 135.810 125.130  1.00  0.00     0.087 A 
ATOM     14  C   UNL     1     127.830 136.067 121.347  1.00  0.00     0.009 A 
ATOM     15  C   UNL     1     128.055 137.358 123.416  1.00  0.00     0.027 A 
ATOM     16  C   UNL     1     128.478 137.043 122.118  1.00  0.00     0.003 A 
ATOM     17  H   UNL     1     126.550 137.312 125.883  1.00  0.00     0.166 HD
ENDROOT
BRANCH   6  18
ATOM     18  C   UNL     1     126.471 132.016 118.388  1.00  0.00     0.230 C 
ATOM     19  O   UNL     1     126.283 130.823 118.130  1.00  0.00    -0.274 OA
ATOM     20  N   UNL     1     127.599 132.686 117.901  1.00  0.00    -0.343 N 
BRANCH  20  21
ATOM     21  C   UNL     1     128.547 131.907 117.098  1.00  0.00     0.116 C 
ATOM     22  C   UNL     1     129.852 131.608 117.821  1.00  0.00     0.027 C 
ENDBRANCH  20  21
BRANCH  20  23
ATOM     23  C   UNL     1     127.989 134.051 118.269  1.00  0.00     0.116 C 
ATOM     24  C   UNL     1     128.449 134.883 117.082  1.00  0.00     0.027 C 
ENDBRANCH  20  23
ENDBRANCH   6  18
BRANCH   1  25
ATOM     25  C   UNL     1     122.758 132.997 121.056  1.00  0.00     0.112 C 
BRANCH  25  26
ATOM     26  C   UNL     1     121.638 132.595 121.972  1.00  0.00    -0.019 C 
ATOM     27  C   UNL     1     120.507 133.294 122.144  1.00  0.00     0.005 C 
ENDBRANCH  25  26
ENDBRANCH   1  25
TORSDOF 5
ENDMDL
MODEL 17
REMARK VINA RESULT:    -7.371      2.494      7.478
REMARK INTER + INTRA:         -10.260
REMARK INTER:                 -10.445
REMARK INTRA:                   0.185
REMARK UNBOUND:                -0.734
REMARK SMILES C=CCN1C[C@H](C(=O)N(CC)CC)C=C2c3cccc4[nH]cc(c34)C[C@H]21
REMARK SMILES IDX 4 1 21 2 26 3 15 4 25 5 6 6 5 7 23 8 16 9 14 10 24 11 20 12
REMARK SMILES IDX 22 13 17 14 19 15 18 16 7 18 8 19 9 20 10 21 11 22 12 23
REMARK SMILES IDX 13 24 3 25 2 26 1 27
REMARK H PARENT 21 17
ROOT
ATOM      1  N   UNL     1     123.900 132.816 121.509  1.00  0.00    -0.291 NA
ATOM      2  N   UNL     1     124.347 135.610 126.843  1.00  0.00    -0.361 N 
ATOM      3  C   UNL     1     124.433 133.504 122.715  1.00  0.00     0.092 C 
ATOM      4  C   UNL     1     125.282 134.773 122.394  1.00  0.00    -0.026 C 
ATOM      5  C   UNL     1     123.380 133.638 123.877  1.00  0.00     0.061 C 
ATOM      6  C   UNL     1     125.498 134.077 119.989  1.00  0.00     0.116 C 
ATOM      7  C   UNL     1     124.917 132.728 120.452  1.00  0.00     0.103 C 
ATOM      8  C   UNL     1     123.902 134.489 124.980  1.00  0.00    -0.020 A 
ATOM      9  C   UNL     1     125.650 135.653 123.534  1.00  0.00    -0.011 A 
ATOM     10  C   UNL     1     125.731 135.023 121.146  1.00  0.00    -0.007 C 
ATOM     11  C   UNL     1     124.942 135.409 124.721  1.00  0.00     0.010 A 
ATOM     12  C   UNL     1     125.204 136.110 125.886  1.00  0.00     0.046 A 
ATOM     13  C   UNL     1     123.548 134.626 126.302  1.00  0.00     0.087 A 
ATOM     14  C   UNL     1     126.638 136.646 123.579  1.00  0.00     0.009 A 
ATOM     15  C   UNL     1     126.181 137.106 125.940  1.00  0.00     0.027 A 
ATOM     16  C   UNL     1     126.892 137.359 124.760  1.00  0.00     0.003 A 
ATOM     17  H   UNL     1     124.308 135.928 127.801  1.00  0.00     0.166 HD
ENDROOT
BRANCH   6  18
ATOM     18  C   UNL     1     126.812 133.804 119.230  1.00  0.00     0.230 C 
ATOM     19  O   UNL     1     127.363 132.701 119.295  1.00  0.00    -0.274 OA
ATOM     20  N   UNL     1     127.343 134.826 118.434  1.00  0.00    -0.343 N 
BRANCH  20  21
ATOM     21  C   UNL     1     128.583 134.533 117.707  1.00  0.00     0.116 C 
ATOM     22  C   UNL     1     129.830 134.624 118.574  1.00  0.00     0.027 C 
ENDBRANCH  20  21
BRANCH  20  23
ATOM     23  C   UNL     1     126.853 136.207 118.403  1.00  0.00     0.116 C 
ATOM     24  C   UNL     1     127.662 137.110 117.484  1.00  0.00     0.027 C 
ENDBRANCH  20  23
ENDBRANCH   6  18
BRANCH   1  25
ATOM     25  C   UNL     1     122.555 133.156 121.052  1.00  0.00     0.112 C 
BRANCH  25  26
ATOM     26  C   UNL     1     121.382 132.624 121.826  1.00  0.00    -0.019 C 
ATOM     27  C   UNL     1     120.210 133.261 121.964  1.00  0.00     0.005 C 
ENDBRANCH  25  26
ENDBRANCH   1  25
TORSDOF 5
ENDMDL
MODEL 18
REMARK VINA RESULT:    -7.330      2.127      7.026
REMARK INTER + INTRA:         -10.207
REMARK INTER:                  -9.977
REMARK INTRA:                  -0.230
REMARK UNBOUND:                -0.734
REMARK SMILES C=CCN1C[C@H](C(=O)N(CC)CC)C=C2c3cccc4[nH]cc(c34)C[C@H]21
REMARK SMILES IDX 4 1 21 2 26 3 15 4 25 5 6 6 5 7 23 8 16 9 14 10 24 11 20 12
REMARK SMILES IDX 22 13 17 14 19 15 18 16 7 18 8 19 9 20 10 21 11 22 12 23
REMARK SMILES IDX 13 24 3 25 2 26 1 27
REMARK H PARENT 21 17
ROOT
ATOM      1  N   UNL     1     127.119 135.081 121.260  1.00  0.00    -0.291 NA
ATOM      2  N   UNL     1     124.263 137.307 126.091  1.00  0.00    -0.361 N 
ATOM      3  C   UNL     1     126.066 135.511 122.216  1.00  0.00     0.092 C 
ATOM      4  C   UNL     1     125.063 134.381 122.603  1.00  0.00    -0.026 C 
ATOM      5  C   UNL     1     126.614 136.398 123.396  1.00  0.00     0.061 C 
ATOM      6  C   UNL     1     125.824 132.979 120.660  1.00  0.00     0.116 C 
ATOM      7  C   UNL     1     126.557 134.248 120.187  1.00  0.00     0.103 C 
ATOM      8  C   UNL     1     125.561 136.647 124.416  1.00  0.00    -0.020 A 
ATOM      9  C   UNL     1     124.131 134.651 123.728  1.00  0.00    -0.011 A 
ATOM     10  C   UNL     1     124.990 133.232 121.898  1.00  0.00    -0.007 C 
ATOM     11  C   UNL     1     124.457 135.771 124.509  1.00  0.00     0.010 A 
ATOM     12  C   UNL     1     123.659 136.186 125.563  1.00  0.00     0.046 A 
ATOM     13  C   UNL     1     125.422 137.594 125.404  1.00  0.00     0.087 A 
ATOM     14  C   UNL     1     122.956 133.965 124.066  1.00  0.00     0.009 A 
ATOM     15  C   UNL     1     122.492 135.505 125.913  1.00  0.00     0.027 A 
ATOM     16  C   UNL     1     122.158 134.384 125.140  1.00  0.00     0.003 A 
ATOM     17  H   UNL     1     123.906 137.834 126.875  1.00  0.00     0.166 HD
ENDROOT
BRANCH   6  18
ATOM     18  C   UNL     1     124.943 132.467 119.502  1.00  0.00     0.230 C 
ATOM     19  O   UNL     1     123.728 132.688 119.486  1.00  0.00    -0.274 OA
ATOM     20  N   UNL     1     125.561 131.781 118.451  1.00  0.00    -0.343 N 
BRANCH  20  21
ATOM     21  C   UNL     1     124.704 131.323 117.353  1.00  0.00     0.116 C 
ATOM     22  C   UNL     1     125.481 130.870 116.125  1.00  0.00     0.027 C 
ENDBRANCH  20  21
BRANCH  20  23
ATOM     23  C   UNL     1     126.960 131.340 118.443  1.00  0.00     0.116 C 
ATOM     24  C   UNL     1     127.884 132.293 117.700  1.00  0.00     0.027 C 
ENDBRANCH  20  23
ENDBRANCH   6  18
BRANCH   1  25
ATOM     25  C   UNL     1     128.400 134.626 121.794  1.00  0.00     0.112 C 
BRANCH  25  26
ATOM     26  C   UNL     1     129.622 134.761 120.932  1.00  0.00    -0.019 C 
ATOM     27  C   UNL     1     130.297 135.904 120.741  1.00  0.00     0.005 C 
ENDBRANCH  25  26
ENDBRANCH   1  25
TORSDOF 5
ENDMDL
MODEL 19
REMARK VINA RESULT:    -7.256      2.698      5.568
REMARK INTER + INTRA:         -10.111
REMARK INTER:                  -9.957
REMARK INTRA:                  -0.154
REMARK UNBOUND:                -0.734
REMARK SMILES C=CCN1C[C@H](C(=O)N(CC)CC)C=C2c3cccc4[nH]cc(c34)C[C@H]21
REMARK SMILES IDX 4 1 21 2 26 3 15 4 25 5 6 6 5 7 23 8 16 9 14 10 24 11 20 12
REMARK SMILES IDX 22 13 17 14 19 15 18 16 7 18 8 19 9 20 10 21 11 22 12 23
REMARK SMILES IDX 13 24 3 25 2 26 1 27
REMARK H PARENT 21 17
ROOT
ATOM      1  N   UNL     1     125.318 133.587 119.947  1.00  0.00    -0.291 NA
ATOM      2  N   UNL     1     128.822 138.058 117.901  1.00  0.00    -0.361 N 
ATOM      3  C   UNL     1     126.220 134.767 119.871  1.00  0.00     0.092 C 
ATOM      4  C   UNL     1     127.532 134.614 120.701  1.00  0.00    -0.026 C 
ATOM      5  C   UNL     1     126.372 135.347 118.415  1.00  0.00     0.061 C 
ATOM      6  C   UNL     1     126.559 132.673 121.967  1.00  0.00     0.116 C 
ATOM      7  C   UNL     1     125.221 133.079 121.323  1.00  0.00     0.103 C 
ATOM      8  C   UNL     1     127.419 136.402 118.364  1.00  0.00    -0.020 A 
ATOM      9  C   UNL     1     128.593 135.633 120.493  1.00  0.00    -0.011 A 
ATOM     10  C   UNL     1     127.671 133.642 121.627  1.00  0.00    -0.007 C 
ATOM     11  C   UNL     1     128.420 136.443 119.359  1.00  0.00     0.010 A 
ATOM     12  C   UNL     1     129.296 137.473 119.055  1.00  0.00     0.046 A 
ATOM     13  C   UNL     1     127.683 137.413 117.469  1.00  0.00     0.087 A 
ATOM     14  C   UNL     1     129.700 135.913 121.307  1.00  0.00     0.009 A 
ATOM     15  C   UNL     1     130.405 137.754 119.854  1.00  0.00     0.027 A 
ATOM     16  C   UNL     1     130.587 136.950 120.988  1.00  0.00     0.003 A 
ATOM     17  H   UNL     1     129.256 138.843 117.436  1.00  0.00     0.166 HD
ENDROOT
BRANCH   6  18
ATOM     18  C   UNL     1     126.357 132.587 123.494  1.00  0.00     0.230 C 
ATOM     19  O   UNL     1     126.571 131.533 124.101  1.00  0.00    -0.274 OA
ATOM     20  N   UNL     1     125.964 133.743 124.178  1.00  0.00    -0.343 N 
BRANCH  20  21
ATOM     21  C   UNL     1     125.799 133.638 125.631  1.00  0.00     0.116 C 
ATOM     22  C   UNL     1     124.362 133.830 126.094  1.00  0.00     0.027 C 
ENDBRANCH  20  21
BRANCH  20  23
ATOM     23  C   UNL     1     125.545 134.995 123.540  1.00  0.00     0.116 C 
ATOM     24  C   UNL     1     126.391 136.190 123.952  1.00  0.00     0.027 C 
ENDBRANCH  20  23
ENDBRANCH   6  18
BRANCH   1  25
ATOM     25  C   UNL     1     125.425 132.563 118.912  1.00  0.00     0.112 C 
BRANCH  25  26
ATOM     26  C   UNL     1     126.756 131.902 118.694  1.00  0.00    -0.019 C 
ATOM     27  C   UNL     1     127.532 132.090 117.616  1.00  0.00     0.005 C 
ENDBRANCH  25  26
ENDBRANCH   1  25
TORSDOF 5
ENDMDL
MODEL 20
REMARK VINA RESULT:    -7.130      2.296      4.404
REMARK INTER + INTRA:          -9.949
REMARK INTER:                 -10.357
REMARK INTRA:                   0.408
REMARK UNBOUND:                -0.734
REMARK SMILES C=CCN1C[C@H](C(=O)N(CC)CC)C=C2c3cccc4[nH]cc(c34)C[C@H]21
REMARK SMILES IDX 4 1 21 2 26 3 15 4 25 5 6 6 5 7 23 8 16 9 14 10 24 11 20 12
REMARK SMILES IDX 22 13 17 14 19 15 18 16 7 18 8 19 9 20 10 21 11 22 12 23
REMARK SMILES IDX 13 24 3 25 2 26 1 27
REMARK H PARENT 21 17
ROOT
ATOM      1  N   UNL     1     124.378 135.297 123.816  1.00  0.00    -0.291 NA
ATOM      2  N   UNL     1     127.668 133.390 119.126  1.00  0.00    -0.361 N 
ATOM      3  C   UNL     1     125.296 135.251 122.647  1.00  0.00     0.092 C 
ATOM      4  C   UNL     1     126.715 135.831 122.934  1.00  0.00    -0.026 C 
ATOM      5  C   UNL     1     125.239 133.888 121.859  1.00  0.00     0.061 C 
ATOM      6  C   UNL     1     125.887 136.941 125.031  1.00  0.00     0.116 C 
ATOM      7  C   UNL     1     124.479 136.583 124.521  1.00  0.00     0.103 C 
ATOM      8  C   UNL     1     126.300 133.825 120.819  1.00  0.00    -0.020 A 
ATOM      9  C   UNL     1     127.764 135.607 121.906  1.00  0.00    -0.011 A 
ATOM     10  C   UNL     1     126.964 136.573 124.034  1.00  0.00    -0.007 C 
ATOM     11  C   UNL     1     127.444 134.644 120.936  1.00  0.00     0.010 A 
ATOM     12  C   UNL     1     128.296 134.357 119.881  1.00  0.00     0.046 A 
ATOM     13  C   UNL     1     126.455 133.056 119.689  1.00  0.00     0.087 A 
ATOM     14  C   UNL     1     128.993 136.267 121.761  1.00  0.00     0.009 A 
ATOM     15  C   UNL     1     129.524 135.003 119.732  1.00  0.00     0.027 A 
ATOM     16  C   UNL     1     129.854 135.965 120.696  1.00  0.00     0.003 A 
ATOM     17  H   UNL     1     128.050 132.981 118.285  1.00  0.00     0.166 HD
ENDROOT
BRANCH   6  18
ATOM     18  C   UNL     1     125.921 138.452 125.340  1.00  0.00     0.230 C 
ATOM     19  O   UNL     1     126.953 139.109 125.168  1.00  0.00    -0.274 OA
ATOM     20  N   UNL     1     124.744 139.066 125.781  1.00  0.00    -0.343 N 
BRANCH  20  21
ATOM     21  C   UNL     1     124.799 140.507 126.049  1.00  0.00     0.116 C 
ATOM     22  C   UNL     1     124.484 141.362 124.830  1.00  0.00     0.027 C 
ENDBRANCH  20  21
BRANCH  20  23
ATOM     23  C   UNL     1     123.516 138.358 126.156  1.00  0.00     0.116 C 
ATOM     24  C   UNL     1     122.805 138.979 127.348  1.00  0.00     0.027 C 
ENDBRANCH  20  23
ENDBRANCH   6  18
BRANCH   1  25
ATOM     25  C   UNL     1     124.289 134.121 124.676  1.00  0.00     0.112 C 
BRANCH  25  26
ATOM     26  C   UNL     1     123.481 134.219 125.939  1.00  0.00    -0.019 C 
ATOM     27  C   UNL     1     122.149 134.074 126.004  1.00  0.00     0.005 C 
ENDBRANCH  25  26
ENDBRANCH   1  25
TORSDOF 5
ENDMDL
