MODEL 1
REMARK VINA RESULT:    -9.510      0.000      0.000
REMARK INTER + INTRA:         -11.335
REMARK INTER:                 -12.290
REMARK INTRA:                   0.955
REMARK UNBOUND:                 0.955
REMARK SMILES C=CCN1C[C@H](C(=O)N(CC)CC)C=C2c3cccc4[nH]cc(c34)C[C@H]21
REMARK SMILES IDX 4 1 21 2 26 3 15 4 25 5 6 6 5 7 23 8 16 9 14 10 24 11 20 12
REMARK SMILES IDX 22 13 17 14 19 15 18 16 7 18 8 19 9 20 10 21 11 22 12 23
REMARK SMILES IDX 13 24 3 25 2 26 1 27
REMARK H PARENT 21 17
ROOT
ATOM      1  N   UNL     1     101.896 118.517  77.852  1.00  0.00    -0.291 NA
ATOM      2  N   UNL     1      98.655 123.559  78.579  1.00  0.00    -0.361 N 
ATOM      3  C   UNL     1     100.864 119.494  78.288  1.00  0.00     0.092 C 
ATOM      4  C   UNL     1     100.734 119.627  79.837  1.00  0.00    -0.026 C 
ATOM      5  C   UNL     1     100.886 120.838  77.467  1.00  0.00     0.061 C 
ATOM      6  C   UNL     1     102.015 117.491  80.173  1.00  0.00     0.116 C 
ATOM      7  C   UNL     1     101.840 117.288  78.656  1.00  0.00     0.103 C 
ATOM      8  C   UNL     1      99.964 121.844  78.059  1.00  0.00    -0.020 A 
ATOM      9  C   UNL     1      99.905 120.745  80.359  1.00  0.00    -0.011 A 
ATOM     10  C   UNL     1     101.286 118.719  80.670  1.00  0.00    -0.007 C 
ATOM     11  C   UNL     1      99.582 121.730  79.414  1.00  0.00     0.010 A 
ATOM     12  C   UNL     1      98.774 122.811  79.730  1.00  0.00     0.046 A 
ATOM     13  C   UNL     1      99.378 122.983  77.557  1.00  0.00     0.087 A 
ATOM     14  C   UNL     1      99.374 120.904  81.646  1.00  0.00     0.009 A 
ATOM     15  C   UNL     1      98.246 122.983  81.011  1.00  0.00     0.027 A 
ATOM     16  C   UNL     1      98.565 122.004  81.963  1.00  0.00     0.003 A 
ATOM     17  H   UNL     1      98.120 124.412  78.502  1.00  0.00     0.166 HD
ENDROOT
BRANCH   6  18
ATOM     18  C   UNL     1     101.509 116.224  80.893  1.00  0.00     0.230 C 
ATOM     19  O   UNL     1     101.518 115.128  80.325  1.00  0.00    -0.274 OA
ATOM     20  N   UNL     1     101.077 116.342  82.219  1.00  0.00    -0.343 N 
BRANCH  20  21
ATOM     21  C   UNL     1     100.621 115.119  82.887  1.00  0.00     0.116 C 
ATOM     22  C   UNL     1      99.225 114.682  82.464  1.00  0.00     0.027 C 
ENDBRANCH  20  21
BRANCH  20  23
ATOM     23  C   UNL     1     100.889 117.610  82.931  1.00  0.00     0.116 C 
ATOM     24  C   UNL     1     100.615 117.428  84.416  1.00  0.00     0.027 C 
ENDBRANCH  20  23
ENDBRANCH   6  18
BRANCH   1  25
ATOM     25  C   UNL     1     103.240 119.009  77.559  1.00  0.00     0.112 C 
BRANCH  25  26
ATOM     26  C   UNL     1     104.391 118.460  78.354  1.00  0.00    -0.019 C 
ATOM     27  C   UNL     1     105.071 117.348  78.038  1.00  0.00     0.005 C 
ENDBRANCH  25  26
ENDBRANCH   1  25
TORSDOF 5
ENDMDL
MODEL 2
REMARK VINA RESULT:    -9.485      1.663      4.451
REMARK INTER + INTRA:         -11.303
REMARK INTER:                 -10.491
REMARK INTRA:                  -0.811
REMARK UNBOUND:                 0.955
REMARK SMILES C=CCN1C[C@H](C(=O)N(CC)CC)C=C2c3cccc4[nH]cc(c34)C[C@H]21
REMARK SMILES IDX 4 1 21 2 26 3 15 4 25 5 6 6 5 7 23 8 16 9 14 10 24 11 20 12
REMARK SMILES IDX 22 13 17 14 19 15 18 16 7 18 8 19 9 20 10 21 11 22 12 23
REMARK SMILES IDX 13 24 3 25 2 26 1 27
REMARK H PARENT 21 17
ROOT
ATOM      1  N   UNL     1     101.290 119.075  81.775  1.00  0.00    -0.291 NA
ATOM      2  N   UNL     1      97.860 123.862  80.442  1.00  0.00    -0.361 N 
ATOM      3  C   UNL     1     100.784 120.343  81.186  1.00  0.00     0.092 C 
ATOM      4  C   UNL     1     100.743 120.343  79.626  1.00  0.00    -0.026 C 
ATOM      5  C   UNL     1      99.514 120.914  81.921  1.00  0.00     0.061 C 
ATOM      6  C   UNL     1     102.245 118.329  79.543  1.00  0.00     0.116 C 
ATOM      7  C   UNL     1     102.466 118.581  81.046  1.00  0.00     0.103 C 
ATOM      8  C   UNL     1      98.943 122.073  81.186  1.00  0.00    -0.020 A 
ATOM      9  C   UNL     1     100.032 121.466  78.962  1.00  0.00    -0.011 A 
ATOM     10  C   UNL     1     101.393 119.405  78.905  1.00  0.00    -0.007 C 
ATOM     11  C   UNL     1      99.221 122.235  79.811  1.00  0.00     0.010 A 
ATOM     12  C   UNL     1      98.532 123.347  79.354  1.00  0.00     0.046 A 
ATOM     13  C   UNL     1      98.099 123.093  81.560  1.00  0.00     0.087 A 
ATOM     14  C   UNL     1     100.112 121.873  77.623  1.00  0.00     0.009 A 
ATOM     15  C   UNL     1      98.599 123.757  78.022  1.00  0.00     0.027 A 
ATOM     16  C   UNL     1      99.405 122.994  77.166  1.00  0.00     0.003 A 
ATOM     17  H   UNL     1      97.270 124.682  80.416  1.00  0.00     0.166 HD
ENDROOT
BRANCH   6  18
ATOM     18  C   UNL     1     103.624 118.244  78.857  1.00  0.00     0.230 C 
ATOM     19  O   UNL     1     104.427 119.179  78.936  1.00  0.00    -0.274 OA
ATOM     20  N   UNL     1     103.957 117.067  78.178  1.00  0.00    -0.343 N 
BRANCH  20  21
ATOM     21  C   UNL     1     105.281 117.005  77.552  1.00  0.00     0.116 C 
ATOM     22  C   UNL     1     106.302 116.226  78.369  1.00  0.00     0.027 C 
ENDBRANCH  20  21
BRANCH  20  23
ATOM     23  C   UNL     1     103.028 115.966  77.901  1.00  0.00     0.116 C 
ATOM     24  C   UNL     1     102.780 115.074  79.108  1.00  0.00     0.027 C 
ENDBRANCH  20  23
ENDBRANCH   6  18
BRANCH   1  25
ATOM     25  C   UNL     1     100.321 118.053  82.162  1.00  0.00     0.112 C 
BRANCH  25  26
ATOM     26  C   UNL     1     100.833 116.699  82.565  1.00  0.00    -0.019 C 
ATOM     27  C   UNL     1     100.250 115.537  82.238  1.00  0.00     0.005 C 
ENDBRANCH  25  26
ENDBRANCH   1  25
TORSDOF 5
ENDMDL
MODEL 3
REMARK VINA RESULT:    -9.000      1.154      1.676
REMARK INTER + INTRA:         -10.676
REMARK INTER:                 -11.423
REMARK INTRA:                   0.748
REMARK UNBOUND:                 0.955
REMARK SMILES C=CCN1C[C@H](C(=O)N(CC)CC)C=C2c3cccc4[nH]cc(c34)C[C@H]21
REMARK SMILES IDX 4 1 21 2 26 3 15 4 25 5 6 6 5 7 23 8 16 9 14 10 24 11 20 12
REMARK SMILES IDX 22 13 17 14 19 15 18 16 7 18 8 19 9 20 10 21 11 22 12 23
REMARK SMILES IDX 13 24 3 25 2 26 1 27
REMARK H PARENT 21 17
ROOT
ATOM      1  N   UNL     1     101.997 118.091  78.609  1.00  0.00    -0.291 NA
ATOM      2  N   UNL     1      98.908 123.279  78.586  1.00  0.00    -0.361 N 
ATOM      3  C   UNL     1     100.971 119.138  78.862  1.00  0.00     0.092 C 
ATOM      4  C   UNL     1     100.716 119.420  80.375  1.00  0.00    -0.026 C 
ATOM      5  C   UNL     1     101.115 120.396  77.927  1.00  0.00     0.061 C 
ATOM      6  C   UNL     1     101.879 117.285  81.015  1.00  0.00     0.116 C 
ATOM      7  C   UNL     1     101.825 116.947  79.514  1.00  0.00     0.103 C 
ATOM      8  C   UNL     1     100.188 121.483  78.341  1.00  0.00    -0.020 A 
ATOM      9  C   UNL     1      99.892 120.607  80.718  1.00  0.00    -0.011 A 
ATOM     10  C   UNL     1     101.159 118.578  81.333  1.00  0.00    -0.007 C 
ATOM     11  C   UNL     1      99.688 121.509  79.662  1.00  0.00     0.010 A 
ATOM     12  C   UNL     1      98.900 122.640  79.807  1.00  0.00     0.046 A 
ATOM     13  C   UNL     1      99.691 122.587  77.688  1.00  0.00     0.087 A 
ATOM     14  C   UNL     1      99.261 120.904  81.934  1.00  0.00     0.009 A 
ATOM     15  C   UNL     1      98.274 122.948  81.016  1.00  0.00     0.027 A 
ATOM     16  C   UNL     1      98.472 122.055  82.077  1.00  0.00     0.003 A 
ATOM     17  H   UNL     1      98.416 124.138  78.385  1.00  0.00     0.166 HD
ENDROOT
BRANCH   6  18
ATOM     18  C   UNL     1     101.264 116.109  81.801  1.00  0.00     0.230 C 
ATOM     19  O   UNL     1     101.765 115.729  82.864  1.00  0.00    -0.274 OA
ATOM     20  N   UNL     1     100.101 115.512  81.301  1.00  0.00    -0.343 N 
BRANCH  20  21
ATOM     21  C   UNL     1      99.526 114.410  82.078  1.00  0.00     0.116 C 
ATOM     22  C   UNL     1      99.122 114.810  83.490  1.00  0.00     0.027 C 
ENDBRANCH  20  21
BRANCH  20  23
ATOM     23  C   UNL     1      99.515 115.788  79.985  1.00  0.00     0.116 C 
ATOM     24  C   UNL     1      99.128 114.528  79.226  1.00  0.00     0.027 C 
ENDBRANCH  20  23
ENDBRANCH   6  18
BRANCH   1  25
ATOM     25  C   UNL     1     103.379 118.511  78.392  1.00  0.00     0.112 C 
BRANCH  25  26
ATOM     26  C   UNL     1     104.254 117.660  77.517  1.00  0.00    -0.019 C 
ATOM     27  C   UNL     1     105.165 116.787  77.971  1.00  0.00     0.005 C 
ENDBRANCH  25  26
ENDBRANCH   1  25
TORSDOF 5
ENDMDL
MODEL 4
REMARK VINA RESULT:    -8.492      1.342      4.605
REMARK INTER + INTRA:         -10.020
REMARK INTER:                 -10.157
REMARK INTRA:                   0.137
REMARK UNBOUND:                 0.955
REMARK SMILES C=CCN1C[C@H](C(=O)N(CC)CC)C=C2c3cccc4[nH]cc(c34)C[C@H]21
REMARK SMILES IDX 4 1 21 2 26 3 15 4 25 5 6 6 5 7 23 8 16 9 14 10 24 11 20 12
REMARK SMILES IDX 22 13 17 14 19 15 18 16 7 18 8 19 9 20 10 21 11 22 12 23
REMARK SMILES IDX 13 24 3 25 2 26 1 27
REMARK H PARENT 21 17
ROOT
ATOM      1  N   UNL     1     101.194 117.170  81.978  1.00  0.00    -0.291 NA
ATOM      2  N   UNL     1      98.791 122.687  81.492  1.00  0.00    -0.361 N 
ATOM      3  C   UNL     1     100.903 118.562  81.544  1.00  0.00     0.092 C 
ATOM      4  C   UNL     1     100.603 118.699  80.019  1.00  0.00    -0.026 C 
ATOM      5  C   UNL     1      99.942 119.336  82.522  1.00  0.00     0.061 C 
ATOM      6  C   UNL     1     101.562 116.417  79.580  1.00  0.00     0.116 C 
ATOM      7  C   UNL     1     102.084 116.490  81.026  1.00  0.00     0.103 C 
ATOM      8  C   UNL     1      99.539 120.649  81.951  1.00  0.00    -0.020 A 
ATOM      9  C   UNL     1     100.069 120.001  79.543  1.00  0.00    -0.011 A 
ATOM     10  C   UNL     1     100.887 117.703  79.153  1.00  0.00    -0.007 C 
ATOM     11  C   UNL     1      99.613 120.858  80.557  1.00  0.00     0.010 A 
ATOM     12  C   UNL     1      99.134 122.128  80.280  1.00  0.00     0.046 A 
ATOM     13  C   UNL     1      99.030 121.796  82.515  1.00  0.00     0.087 A 
ATOM     14  C   UNL     1     100.016 120.489  78.230  1.00  0.00     0.009 A 
ATOM     15  C   UNL     1      99.069 122.621  78.976  1.00  0.00     0.027 A 
ATOM     16  C   UNL     1      99.521 121.772  77.956  1.00  0.00     0.003 A 
ATOM     17  H   UNL     1      98.411 123.616  81.608  1.00  0.00     0.166 HD
ENDROOT
BRANCH   6  18
ATOM     18  C   UNL     1     102.749 116.088  78.651  1.00  0.00     0.230 C 
ATOM     19  O   UNL     1     102.937 114.934  78.252  1.00  0.00    -0.274 OA
ATOM     20  N   UNL     1     103.581 117.135  78.240  1.00  0.00    -0.343 N 
BRANCH  20  21
ATOM     21  C   UNL     1     104.689 116.797  77.341  1.00  0.00     0.116 C 
ATOM     22  C   UNL     1     105.945 116.342  78.071  1.00  0.00     0.027 C 
ENDBRANCH  20  21
BRANCH  20  23
ATOM     23  C   UNL     1     103.534 118.502  78.768  1.00  0.00     0.116 C 
ATOM     24  C   UNL     1     103.726 119.565  77.697  1.00  0.00     0.027 C 
ENDBRANCH  20  23
ENDBRANCH   6  18
BRANCH   1  25
ATOM     25  C   UNL     1     100.094 116.358  82.492  1.00  0.00     0.112 C 
BRANCH  25  26
ATOM     26  C   UNL     1     100.355 114.908  82.789  1.00  0.00    -0.019 C 
ATOM     27  C   UNL     1      99.557 113.899  82.411  1.00  0.00     0.005 C 
ENDBRANCH  25  26
ENDBRANCH   1  25
TORSDOF 5
ENDMDL
MODEL 5
REMARK VINA RESULT:    -7.721      4.254      6.868
REMARK INTER + INTRA:          -9.023
REMARK INTER:                  -8.522
REMARK INTRA:                  -0.501
REMARK UNBOUND:                 0.955
REMARK SMILES C=CCN1C[C@H](C(=O)N(CC)CC)C=C2c3cccc4[nH]cc(c34)C[C@H]21
REMARK SMILES IDX 4 1 21 2 26 3 15 4 25 5 6 6 5 7 23 8 16 9 14 10 24 11 20 12
REMARK SMILES IDX 22 13 17 14 19 15 18 16 7 18 8 19 9 20 10 21 11 22 12 23
REMARK SMILES IDX 13 24 3 25 2 26 1 27
REMARK H PARENT 21 17
ROOT
ATOM      1  N   UNL     1     100.430 117.672  85.658  1.00  0.00    -0.291 NA
ATOM      2  N   UNL     1     100.741 119.544  79.927  1.00  0.00    -0.361 N 
ATOM      3  C   UNL     1     100.097 118.257  84.333  1.00  0.00     0.092 C 
ATOM      4  C   UNL     1      99.597 119.733  84.401  1.00  0.00    -0.026 C 
ATOM      5  C   UNL     1     101.156 117.924  83.216  1.00  0.00     0.061 C 
ATOM      6  C   UNL     1      99.198 119.531  86.874  1.00  0.00     0.116 C 
ATOM      7  C   UNL     1      99.418 118.022  86.665  1.00  0.00     0.103 C 
ATOM      8  C   UNL     1     100.874 118.680  81.966  1.00  0.00    -0.020 A 
ATOM      9  C   UNL     1      99.473 120.472  83.118  1.00  0.00    -0.011 A 
ATOM     10  C   UNL     1      99.220 120.296  85.569  1.00  0.00    -0.007 C 
ATOM     11  C   UNL     1     100.102 119.861  82.022  1.00  0.00     0.010 A 
ATOM     12  C   UNL     1     100.034 120.397  80.746  1.00  0.00     0.046 A 
ATOM     13  C   UNL     1     101.259 118.498  80.658  1.00  0.00     0.087 A 
ATOM     14  C   UNL     1      98.771 121.658  82.864  1.00  0.00     0.009 A 
ATOM     15  C   UNL     1      99.344 121.582  80.484  1.00  0.00     0.027 A 
ATOM     16  C   UNL     1      98.713 122.201  81.572  1.00  0.00     0.003 A 
ATOM     17  H   UNL     1     100.865 119.676  78.933  1.00  0.00     0.166 HD
ENDROOT
BRANCH   6  18
ATOM     18  C   UNL     1      97.853 119.729  87.603  1.00  0.00     0.230 C 
ATOM     19  O   UNL     1      96.823 119.982  86.970  1.00  0.00    -0.274 OA
ATOM     20  N   UNL     1      97.821 119.575  88.993  1.00  0.00    -0.343 N 
BRANCH  20  21
ATOM     21  C   UNL     1      96.526 119.749  89.658  1.00  0.00     0.116 C 
ATOM     22  C   UNL     1      96.557 119.419  91.143  1.00  0.00     0.027 C 
ENDBRANCH  20  21
BRANCH  20  23
ATOM     23  C   UNL     1      99.003 119.422  89.848  1.00  0.00     0.116 C 
ATOM     24  C   UNL     1      99.356 117.970  90.128  1.00  0.00     0.027 C 
ENDBRANCH  20  23
ENDBRANCH   6  18
BRANCH   1  25
ATOM     25  C   UNL     1     101.815 117.737  86.119  1.00  0.00     0.112 C 
BRANCH  25  26
ATOM     26  C   UNL     1     102.074 117.773  87.598  1.00  0.00    -0.019 C 
ATOM     27  C   UNL     1     102.513 118.849  88.267  1.00  0.00     0.005 C 
ENDBRANCH  25  26
ENDBRANCH   1  25
TORSDOF 5
ENDMDL
MODEL 6
REMARK VINA RESULT:    -6.940      2.140      6.889
REMARK INTER + INTRA:          -8.014
REMARK INTER:                  -7.709
REMARK INTRA:                  -0.305
REMARK UNBOUND:                 0.955
REMARK SMILES C=CCN1C[C@H](C(=O)N(CC)CC)C=C2c3cccc4[nH]cc(c34)C[C@H]21
REMARK SMILES IDX 4 1 21 2 26 3 15 4 25 5 6 6 5 7 23 8 16 9 14 10 24 11 20 12
REMARK SMILES IDX 22 13 17 14 19 15 18 16 7 18 8 19 9 20 10 21 11 22 12 23
REMARK SMILES IDX 13 24 3 25 2 26 1 27
REMARK H PARENT 21 17
ROOT
ATOM      1  N   UNL     1     100.365 117.266  81.080  1.00  0.00    -0.291 NA
ATOM      2  N   UNL     1     104.713 114.192  78.234  1.00  0.00    -0.361 N 
ATOM      3  C   UNL     1     101.347 116.800  80.066  1.00  0.00     0.092 C 
ATOM      4  C   UNL     1     102.319 117.914  79.568  1.00  0.00    -0.026 C 
ATOM      5  C   UNL     1     101.993 115.407  80.413  1.00  0.00     0.061 C 
ATOM      6  C   UNL     1     100.832 119.701  80.526  1.00  0.00     0.116 C 
ATOM      7  C   UNL     1      99.801 118.573  80.714  1.00  0.00     0.103 C 
ATOM      8  C   UNL     1     103.094 115.076  79.469  1.00  0.00    -0.020 A 
ATOM      9  C   UNL     1     103.478 117.489  78.742  1.00  0.00    -0.011 A 
ATOM     10  C   UNL     1     102.076 119.220  79.811  1.00  0.00    -0.007 C 
ATOM     11  C   UNL     1     103.737 116.110  78.754  1.00  0.00     0.010 A 
ATOM     12  C   UNL     1     104.752 115.549  77.995  1.00  0.00     0.046 A 
ATOM     13  C   UNL     1     103.711 113.893  79.132  1.00  0.00     0.087 A 
ATOM     14  C   UNL     1     104.298 118.280  77.925  1.00  0.00     0.009 A 
ATOM     15  C   UNL     1     105.579 116.328  77.185  1.00  0.00     0.027 A 
ATOM     16  C   UNL     1     105.330 117.708  77.167  1.00  0.00     0.003 A 
ATOM     17  H   UNL     1     105.337 113.518  77.815  1.00  0.00     0.166 HD
ENDROOT
BRANCH   6  18
ATOM     18  C   UNL     1     100.160 120.847  79.743  1.00  0.00     0.230 C 
ATOM     19  O   UNL     1     100.278 120.930  78.516  1.00  0.00    -0.274 OA
ATOM     20  N   UNL     1      99.380 121.768  80.452  1.00  0.00    -0.343 N 
BRANCH  20  21
ATOM     21  C   UNL     1      98.736 122.836  79.681  1.00  0.00     0.116 C 
ATOM     22  C   UNL     1      97.930 123.801  80.538  1.00  0.00     0.027 C 
ENDBRANCH  20  21
BRANCH  20  23
ATOM     23  C   UNL     1      99.295 121.846  81.914  1.00  0.00     0.116 C 
ATOM     24  C   UNL     1      98.070 121.145  82.481  1.00  0.00     0.027 C 
ENDBRANCH  20  23
ENDBRANCH   6  18
BRANCH   1  25
ATOM     25  C   UNL     1     100.695 117.104  82.493  1.00  0.00     0.112 C 
BRANCH  25  26
ATOM     26  C   UNL     1     100.005 116.017  83.268  1.00  0.00    -0.019 C 
ATOM     27  C   UNL     1      99.546 114.876  82.733  1.00  0.00     0.005 C 
ENDBRANCH  25  26
ENDBRANCH   1  25
TORSDOF 5
ENDMDL
MODEL 7
REMARK VINA RESULT:    -6.879      2.399      5.674
REMARK INTER + INTRA:          -7.935
REMARK INTER:                  -7.101
REMARK INTRA:                  -0.834
REMARK UNBOUND:                 0.955
REMARK SMILES C=CCN1C[C@H](C(=O)N(CC)CC)C=C2c3cccc4[nH]cc(c34)C[C@H]21
REMARK SMILES IDX 4 1 21 2 26 3 15 4 25 5 6 6 5 7 23 8 16 9 14 10 24 11 20 12
REMARK SMILES IDX 22 13 17 14 19 15 18 16 7 18 8 19 9 20 10 21 11 22 12 23
REMARK SMILES IDX 13 24 3 25 2 26 1 27
REMARK H PARENT 21 17
ROOT
ATOM      1  N   UNL     1      99.487 120.210  80.896  1.00  0.00    -0.291 NA
ATOM      2  N   UNL     1      98.260 120.507  86.800  1.00  0.00    -0.361 N 
ATOM      3  C   UNL     1      99.230 119.850  82.315  1.00  0.00     0.092 C 
ATOM      4  C   UNL     1     100.367 119.006  82.970  1.00  0.00    -0.026 C 
ATOM      5  C   UNL     1      98.658 121.042  83.171  1.00  0.00     0.061 C 
ATOM      6  C   UNL     1     101.334 118.476  80.711  1.00  0.00     0.116 C 
ATOM      7  C   UNL     1     100.030 119.068  80.147  1.00  0.00     0.103 C 
ATOM      8  C   UNL     1      98.592 120.685  84.613  1.00  0.00    -0.020 A 
ATOM      9  C   UNL     1     100.310 118.808  84.441  1.00  0.00    -0.011 A 
ATOM     10  C   UNL     1     101.324 118.415  82.223  1.00  0.00    -0.007 C 
ATOM     11  C   UNL     1      99.411 119.649  85.115  1.00  0.00     0.010 A 
ATOM     12  C   UNL     1      99.204 119.554  86.482  1.00  0.00     0.046 A 
ATOM     13  C   UNL     1      97.884 121.203  85.672  1.00  0.00     0.087 A 
ATOM     14  C   UNL     1     100.995 117.863  85.217  1.00  0.00     0.009 A 
ATOM     15  C   UNL     1      99.887 118.622  87.265  1.00  0.00     0.027 A 
ATOM     16  C   UNL     1     100.788 117.778  86.601  1.00  0.00     0.003 A 
ATOM     17  H   UNL     1      97.905 120.673  87.731  1.00  0.00     0.166 HD
ENDROOT
BRANCH   6  18
ATOM     18  C   UNL     1     101.530 117.070  80.108  1.00  0.00     0.230 C 
ATOM     19  O   UNL     1     100.880 116.107  80.526  1.00  0.00    -0.274 OA
ATOM     20  N   UNL     1     102.432 116.922  79.048  1.00  0.00    -0.343 N 
BRANCH  20  21
ATOM     21  C   UNL     1     102.583 115.579  78.479  1.00  0.00     0.116 C 
ATOM     22  C   UNL     1     104.034 115.163  78.284  1.00  0.00     0.027 C 
ENDBRANCH  20  21
BRANCH  20  23
ATOM     23  C   UNL     1     103.353 117.961  78.578  1.00  0.00     0.116 C 
ATOM     24  C   UNL     1     102.878 118.654  77.310  1.00  0.00     0.027 C 
ENDBRANCH  20  23
ENDBRANCH   6  18
BRANCH   1  25
ATOM     25  C   UNL     1     100.113 121.498  80.608  1.00  0.00     0.112 C 
BRANCH  25  26
ATOM     26  C   UNL     1      99.649 122.263  79.401  1.00  0.00    -0.019 C 
ATOM     27  C   UNL     1      98.540 123.015  79.356  1.00  0.00     0.005 C 
ENDBRANCH  25  26
ENDBRANCH   1  25
TORSDOF 5
ENDMDL
MODEL 8
REMARK VINA RESULT:    -6.663      2.373      5.580
REMARK INTER + INTRA:          -7.656
REMARK INTER:                  -7.239
REMARK INTRA:                  -0.416
REMARK UNBOUND:                 0.955
REMARK SMILES C=CCN1C[C@H](C(=O)N(CC)CC)C=C2c3cccc4[nH]cc(c34)C[C@H]21
REMARK SMILES IDX 4 1 21 2 26 3 15 4 25 5 6 6 5 7 23 8 16 9 14 10 24 11 20 12
REMARK SMILES IDX 22 13 17 14 19 15 18 16 7 18 8 19 9 20 10 21 11 22 12 23
REMARK SMILES IDX 13 24 3 25 2 26 1 27
REMARK H PARENT 21 17
ROOT
ATOM      1  N   UNL     1     100.163 120.419  82.360  1.00  0.00    -0.291 NA
ATOM      2  N   UNL     1     102.439 118.345  77.167  1.00  0.00    -0.361 N 
ATOM      3  C   UNL     1     100.965 119.671  81.357  1.00  0.00     0.092 C 
ATOM      4  C   UNL     1     100.891 118.121  81.516  1.00  0.00    -0.026 C 
ATOM      5  C   UNL     1     100.823 120.234  79.893  1.00  0.00     0.061 C 
ATOM      6  C   UNL     1      99.942 118.360  83.831  1.00  0.00     0.116 C 
ATOM      7  C   UNL     1     100.323 119.846  83.704  1.00  0.00     0.103 C 
ATOM      8  C   UNL     1     101.494 119.346  78.907  1.00  0.00    -0.020 A 
ATOM      9  C   UNL     1     101.461 117.294  80.421  1.00  0.00    -0.011 A 
ATOM     10  C   UNL     1     100.399 117.551  82.637  1.00  0.00    -0.007 C 
ATOM     11  C   UNL     1     101.729 117.992  79.233  1.00  0.00     0.010 A 
ATOM     12  C   UNL     1     102.309 117.374  78.137  1.00  0.00     0.046 A 
ATOM     13  C   UNL     1     101.943 119.547  77.623  1.00  0.00     0.087 A 
ATOM     14  C   UNL     1     101.805 115.935  80.448  1.00  0.00     0.009 A 
ATOM     15  C   UNL     1     102.648 116.020  78.151  1.00  0.00     0.027 A 
ATOM     16  C   UNL     1     102.383 115.314  79.332  1.00  0.00     0.003 A 
ATOM     17  H   UNL     1     102.834 118.190  76.250  1.00  0.00     0.166 HD
ENDROOT
BRANCH   6  18
ATOM     18  C   UNL     1     100.558 117.810  85.134  1.00  0.00     0.230 C 
ATOM     19  O   UNL     1     101.458 116.965  85.099  1.00  0.00    -0.274 OA
ATOM     20  N   UNL     1     100.102 118.323  86.353  1.00  0.00    -0.343 N 
BRANCH  20  21
ATOM     21  C   UNL     1     100.719 117.798  87.575  1.00  0.00     0.116 C 
ATOM     22  C   UNL     1     101.923 118.604  88.040  1.00  0.00     0.027 C 
ENDBRANCH  20  21
BRANCH  20  23
ATOM     23  C   UNL     1      98.947 119.213  86.510  1.00  0.00     0.116 C 
ATOM     24  C   UNL     1      98.204 119.005  87.821  1.00  0.00     0.027 C 
ENDBRANCH  20  23
ENDBRANCH   6  18
BRANCH   1  25
ATOM     25  C   UNL     1      98.801 120.812  82.008  1.00  0.00     0.112 C 
BRANCH  25  26
ATOM     26  C   UNL     1      98.490 122.276  81.881  1.00  0.00    -0.019 C 
ATOM     27  C   UNL     1      98.310 122.917  80.718  1.00  0.00     0.005 C 
ENDBRANCH  25  26
ENDBRANCH   1  25
TORSDOF 5
ENDMDL
