MODEL 1
REMARK VINA RESULT:    -8.371      0.000      0.000
REMARK INTER + INTRA:         -11.795
REMARK INTER:                 -10.818
REMARK INTRA:                  -0.977
REMARK UNBOUND:                -0.977
REMARK SMILES C=CCN1C[C@H](C(=O)N(CC)CC)C=C2c3cccc4[nH]cc(c34)C[C@H]21
REMARK SMILES IDX 4 1 21 2 26 3 15 4 25 5 6 6 5 7 23 8 16 9 14 10 24 11 20 12
REMARK SMILES IDX 22 13 17 14 19 15 18 16 7 18 8 19 9 20 10 21 11 22 12 23
REMARK SMILES IDX 13 24 3 25 2 26 1 27
REMARK H PARENT 21 17
ROOT
ATOM      1  N   UNL     1      93.374 120.597 118.470  1.00  0.00    -0.291 NA
ATOM      2  N   UNL     1      89.623 120.806 123.197  1.00  0.00    -0.361 N 
ATOM      3  C   UNL     1      92.633 121.043 119.679  1.00  0.00     0.092 C 
ATOM      4  C   UNL     1      91.893 122.405 119.501  1.00  0.00    -0.026 C 
ATOM      5  C   UNL     1      91.821 119.889 120.378  1.00  0.00     0.061 C 
ATOM      6  C   UNL     1      93.233 122.914 117.436  1.00  0.00     0.116 C 
ATOM      7  C   UNL     1      94.103 121.713 117.851  1.00  0.00     0.103 C 
ATOM      8  C   UNL     1      90.958 120.421 121.466  1.00  0.00    -0.020 A 
ATOM      9  C   UNL     1      90.938 122.807 120.566  1.00  0.00    -0.011 A 
ATOM     10  C   UNL     1      92.165 123.223 118.463  1.00  0.00    -0.007 C 
ATOM     11  C   UNL     1      90.583 121.783 121.458  1.00  0.00     0.010 A 
ATOM     12  C   UNL     1      89.742 122.009 122.536  1.00  0.00     0.046 A 
ATOM     13  C   UNL     1      90.355 119.832 122.553  1.00  0.00     0.087 A 
ATOM     14  C   UNL     1      90.398 124.076 120.814  1.00  0.00     0.009 A 
ATOM     15  C   UNL     1      89.193 123.268 122.786  1.00  0.00     0.027 A 
ATOM     16  C   UNL     1      89.540 124.297 121.901  1.00  0.00     0.003 A 
ATOM     17  H   UNL     1      89.070 120.662 124.030  1.00  0.00     0.166 HD
ENDROOT
BRANCH   6  18
ATOM     18  C   UNL     1      94.155 124.131 117.222  1.00  0.00     0.230 C 
ATOM     19  O   UNL     1      94.511 124.830 118.176  1.00  0.00    -0.274 OA
ATOM     20  N   UNL     1      94.611 124.399 115.926  1.00  0.00    -0.343 N 
BRANCH  20  21
ATOM     21  C   UNL     1      95.503 125.550 115.753  1.00  0.00     0.116 C 
ATOM     22  C   UNL     1      95.092 126.470 114.613  1.00  0.00     0.027 C 
ENDBRANCH  20  21
BRANCH  20  23
ATOM     23  C   UNL     1      94.135 123.726 114.713  1.00  0.00     0.116 C 
ATOM     24  C   UNL     1      95.101 122.672 114.194  1.00  0.00     0.027 C 
ENDBRANCH  20  23
ENDBRANCH   6  18
BRANCH   1  25
ATOM     25  C   UNL     1      92.703 119.697 117.536  1.00  0.00     0.112 C 
BRANCH  25  26
ATOM     26  C   UNL     1      93.083 119.762 116.084  1.00  0.00    -0.019 C 
ATOM     27  C   UNL     1      92.253 120.127 115.096  1.00  0.00     0.005 C 
ENDBRANCH  25  26
ENDBRANCH   1  25
TORSDOF 5
ENDMDL
MODEL 2
REMARK VINA RESULT:    -8.327      1.762      6.917
REMARK INTER + INTRA:         -11.739
REMARK INTER:                 -10.978
REMARK INTRA:                  -0.761
REMARK UNBOUND:                -0.977
REMARK SMILES C=CCN1C[C@H](C(=O)N(CC)CC)C=C2c3cccc4[nH]cc(c34)C[C@H]21
REMARK SMILES IDX 4 1 21 2 26 3 15 4 25 5 6 6 5 7 23 8 16 9 14 10 24 11 20 12
REMARK SMILES IDX 22 13 17 14 19 15 18 16 7 18 8 19 9 20 10 21 11 22 12 23
REMARK SMILES IDX 13 24 3 25 2 26 1 27
REMARK H PARENT 21 17
ROOT
ATOM      1  N   UNL     1      92.768 120.292 118.075  1.00  0.00    -0.291 NA
ATOM      2  N   UNL     1      95.534 122.399 113.139  1.00  0.00    -0.361 N 
ATOM      3  C   UNL     1      93.161 121.135 116.914  1.00  0.00     0.092 C 
ATOM      4  C   UNL     1      93.516 122.606 117.292  1.00  0.00    -0.026 C 
ATOM      5  C   UNL     1      94.138 120.409 115.916  1.00  0.00     0.061 C 
ATOM      6  C   UNL     1      92.427 122.339 119.542  1.00  0.00     0.116 C 
ATOM      7  C   UNL     1      91.866 121.019 118.980  1.00  0.00     0.103 C 
ATOM      8  C   UNL     1      94.642 121.349 114.879  1.00  0.00    -0.020 A 
ATOM      9  C   UNL     1      94.147 123.447 116.242  1.00  0.00    -0.011 A 
ATOM     10  C   UNL     1      93.196 123.120 118.499  1.00  0.00    -0.007 C 
ATOM     11  C   UNL     1      94.625 122.739 115.128  1.00  0.00     0.010 A 
ATOM     12  C   UNL     1      95.193 123.384 114.041  1.00  0.00     0.046 A 
ATOM     13  C   UNL     1      95.207 121.158 113.639  1.00  0.00     0.087 A 
ATOM     14  C   UNL     1      94.272 124.842 116.207  1.00  0.00     0.009 A 
ATOM     15  C   UNL     1      95.330 124.772 114.000  1.00  0.00     0.027 A 
ATOM     16  C   UNL     1      94.856 125.488 115.108  1.00  0.00     0.003 A 
ATOM     17  H   UNL     1      95.968 122.568 112.243  1.00  0.00     0.166 HD
ENDROOT
BRANCH   6  18
ATOM     18  C   UNL     1      91.251 123.171 120.093  1.00  0.00     0.230 C 
ATOM     19  O   UNL     1      90.626 123.944 119.360  1.00  0.00    -0.274 OA
ATOM     20  N   UNL     1      90.885 122.997 121.432  1.00  0.00    -0.343 N 
BRANCH  20  21
ATOM     21  C   UNL     1      89.751 123.785 121.925  1.00  0.00     0.116 C 
ATOM     22  C   UNL     1      90.152 124.886 122.896  1.00  0.00     0.027 C 
ENDBRANCH  20  21
BRANCH  20  23
ATOM     23  C   UNL     1      91.646 122.222 122.417  1.00  0.00     0.116 C 
ATOM     24  C   UNL     1      90.971 120.914 122.802  1.00  0.00     0.027 C 
ENDBRANCH  20  23
ENDBRANCH   6  18
BRANCH   1  25
ATOM     25  C   UNL     1      93.797 119.492 118.733  1.00  0.00     0.112 C 
BRANCH  25  26
ATOM     26  C   UNL     1      94.481 120.061 119.943  1.00  0.00    -0.019 C 
ATOM     27  C   UNL     1      95.621 120.766 119.911  1.00  0.00     0.005 C 
ENDBRANCH  25  26
ENDBRANCH   1  25
TORSDOF 5
ENDMDL
MODEL 3
REMARK VINA RESULT:    -8.292      2.542      7.897
REMARK INTER + INTRA:         -11.692
REMARK INTER:                 -10.805
REMARK INTRA:                  -0.887
REMARK UNBOUND:                -0.977
REMARK SMILES C=CCN1C[C@H](C(=O)N(CC)CC)C=C2c3cccc4[nH]cc(c34)C[C@H]21
REMARK SMILES IDX 4 1 21 2 26 3 15 4 25 5 6 6 5 7 23 8 16 9 14 10 24 11 20 12
REMARK SMILES IDX 22 13 17 14 19 15 18 16 7 18 8 19 9 20 10 21 11 22 12 23
REMARK SMILES IDX 13 24 3 25 2 26 1 27
REMARK H PARENT 21 17
ROOT
ATOM      1  N   UNL     1      92.028 121.874 120.807  1.00  0.00    -0.291 NA
ATOM      2  N   UNL     1      94.427 122.241 115.279  1.00  0.00    -0.361 N 
ATOM      3  C   UNL     1      92.543 121.535 119.454  1.00  0.00     0.092 C 
ATOM      4  C   UNL     1      91.511 120.785 118.556  1.00  0.00    -0.026 C 
ATOM      5  C   UNL     1      93.344 122.708 118.775  1.00  0.00     0.061 C 
ATOM      6  C   UNL     1      90.082 120.261 120.556  1.00  0.00     0.116 C 
ATOM      7  C   UNL     1      91.280 120.752 121.390  1.00  0.00     0.103 C 
ATOM      8  C   UNL     1      93.675 122.385 117.362  1.00  0.00    -0.020 A 
ATOM      9  C   UNL     1      91.850 120.621 117.119  1.00  0.00    -0.011 A 
ATOM     10  C   UNL     1      90.391 120.238 119.075  1.00  0.00    -0.007 C 
ATOM     11  C   UNL     1      92.914 121.418 116.669  1.00  0.00     0.010 A 
ATOM     12  C   UNL     1      93.384 121.345 115.367  1.00  0.00     0.046 A 
ATOM     13  C   UNL     1      94.611 122.882 116.485  1.00  0.00     0.087 A 
ATOM     14  C   UNL     1      91.279 119.744 116.187  1.00  0.00     0.009 A 
ATOM     15  C   UNL     1      92.817 120.480 114.430  1.00  0.00     0.027 A 
ATOM     16  C   UNL     1      91.753 119.680 114.869  1.00  0.00     0.003 A 
ATOM     17  H   UNL     1      94.971 122.407 114.444  1.00  0.00     0.166 HD
ENDROOT
BRANCH   6  18
ATOM     18  C   UNL     1      89.686 118.856 121.055  1.00  0.00     0.230 C 
ATOM     19  O   UNL     1      90.370 117.868 120.769  1.00  0.00    -0.274 OA
ATOM     20  N   UNL     1      88.557 118.735 121.872  1.00  0.00    -0.343 N 
BRANCH  20  21
ATOM     21  C   UNL     1      88.215 117.391 122.348  1.00  0.00     0.116 C 
ATOM     22  C   UNL     1      86.800 117.284 122.897  1.00  0.00     0.027 C 
ENDBRANCH  20  21
BRANCH  20  23
ATOM     23  C   UNL     1      87.600 119.812 122.148  1.00  0.00     0.116 C 
ATOM     24  C   UNL     1      87.995 120.673 123.338  1.00  0.00     0.027 C 
ENDBRANCH  20  23
ENDBRANCH   6  18
BRANCH   1  25
ATOM     25  C   UNL     1      91.435 123.193 121.015  1.00  0.00     0.112 C 
BRANCH  25  26
ATOM     26  C   UNL     1      90.798 123.488 122.343  1.00  0.00    -0.019 C 
ATOM     27  C   UNL     1      89.588 124.043 122.499  1.00  0.00     0.005 C 
ENDBRANCH  25  26
ENDBRANCH   1  25
TORSDOF 5
ENDMDL
MODEL 4
REMARK VINA RESULT:    -8.287      2.344      7.130
REMARK INTER + INTRA:         -11.687
REMARK INTER:                 -10.864
REMARK INTRA:                  -0.823
REMARK UNBOUND:                -0.977
REMARK SMILES C=CCN1C[C@H](C(=O)N(CC)CC)C=C2c3cccc4[nH]cc(c34)C[C@H]21
REMARK SMILES IDX 4 1 21 2 26 3 15 4 25 5 6 6 5 7 23 8 16 9 14 10 24 11 20 12
REMARK SMILES IDX 22 13 17 14 19 15 18 16 7 18 8 19 9 20 10 21 11 22 12 23
REMARK SMILES IDX 13 24 3 25 2 26 1 27
REMARK H PARENT 21 17
ROOT
ATOM      1  N   UNL     1      89.075 120.750 120.822  1.00  0.00    -0.291 NA
ATOM      2  N   UNL     1      93.270 120.149 116.521  1.00  0.00    -0.361 N 
ATOM      3  C   UNL     1      90.007 121.021 119.695  1.00  0.00     0.092 C 
ATOM      4  C   UNL     1      90.960 122.231 119.940  1.00  0.00    -0.026 C 
ATOM      5  C   UNL     1      90.662 119.721 119.095  1.00  0.00     0.061 C 
ATOM      6  C   UNL     1      89.529 123.029 121.847  1.00  0.00     0.116 C 
ATOM      7  C   UNL     1      88.502 121.995 121.351  1.00  0.00     0.103 C 
ATOM      8  C   UNL     1      91.716 120.059 118.102  1.00  0.00    -0.020 A 
ATOM      9  C   UNL     1      92.078 122.425 118.981  1.00  0.00    -0.011 A 
ATOM     10  C   UNL     1      90.736 123.113 120.938  1.00  0.00    -0.007 C 
ATOM     11  C   UNL     1      92.330 121.330 118.140  1.00  0.00     0.010 A 
ATOM     12  C   UNL     1      93.305 121.372 117.156  1.00  0.00     0.046 A 
ATOM     13  C   UNL     1      92.310 119.342 117.090  1.00  0.00     0.087 A 
ATOM     14  C   UNL     1      92.863 123.569 118.783  1.00  0.00     0.009 A 
ATOM     15  C   UNL     1      94.098 122.503 116.956  1.00  0.00     0.027 A 
ATOM     16  C   UNL     1      93.855 123.602 117.792  1.00  0.00     0.003 A 
ATOM     17  H   UNL     1      93.871 119.885 115.753  1.00  0.00     0.166 HD
ENDROOT
BRANCH   6  18
ATOM     18  C   UNL     1      88.828 124.399 121.952  1.00  0.00     0.230 C 
ATOM     19  O   UNL     1      88.871 125.205 121.018  1.00  0.00    -0.274 OA
ATOM     20  N   UNL     1      88.107 124.688 123.116  1.00  0.00    -0.343 N 
BRANCH  20  21
ATOM     21  C   UNL     1      87.432 125.988 123.182  1.00  0.00     0.116 C 
ATOM     22  C   UNL     1      88.068 126.952 124.173  1.00  0.00     0.027 C 
ENDBRANCH  20  21
BRANCH  20  23
ATOM     23  C   UNL     1      88.113 123.869 124.333  1.00  0.00     0.116 C 
ATOM     24  C   UNL     1      86.836 123.063 124.519  1.00  0.00     0.027 C 
ENDBRANCH  20  23
ENDBRANCH   6  18
BRANCH   1  25
ATOM     25  C   UNL     1      89.470 119.769 121.829  1.00  0.00     0.112 C 
BRANCH  25  26
ATOM     26  C   UNL     1      88.494 119.434 122.921  1.00  0.00    -0.019 C 
ATOM     27  C   UNL     1      87.639 118.401 122.886  1.00  0.00     0.005 C 
ENDBRANCH  25  26
ENDBRANCH   1  25
TORSDOF 5
ENDMDL
MODEL 5
REMARK VINA RESULT:    -8.200      2.958      5.170
REMARK INTER + INTRA:         -11.573
REMARK INTER:                 -10.848
REMARK INTRA:                  -0.726
REMARK UNBOUND:                -0.977
REMARK SMILES C=CCN1C[C@H](C(=O)N(CC)CC)C=C2c3cccc4[nH]cc(c34)C[C@H]21
REMARK SMILES IDX 4 1 21 2 26 3 15 4 25 5 6 6 5 7 23 8 16 9 14 10 24 11 20 12
REMARK SMILES IDX 22 13 17 14 19 15 18 16 7 18 8 19 9 20 10 21 11 22 12 23
REMARK SMILES IDX 13 24 3 25 2 26 1 27
REMARK H PARENT 21 17
ROOT
ATOM      1  N   UNL     1      89.421 119.594 122.151  1.00  0.00    -0.291 NA
ATOM      2  N   UNL     1      87.776 125.096 124.015  1.00  0.00    -0.361 N 
ATOM      3  C   UNL     1      89.422 121.044 122.480  1.00  0.00     0.092 C 
ATOM      4  C   UNL     1      89.790 121.965 121.276  1.00  0.00    -0.026 C 
ATOM      5  C   UNL     1      88.191 121.489 123.355  1.00  0.00     0.061 C 
ATOM      6  C   UNL     1      90.704 120.003 119.997  1.00  0.00     0.116 C 
ATOM      7  C   UNL     1      90.583 119.234 121.326  1.00  0.00     0.103 C 
ATOM      8  C   UNL     1      88.142 122.969 123.499  1.00  0.00    -0.020 A 
ATOM      9  C   UNL     1      89.583 123.426 121.446  1.00  0.00    -0.011 A 
ATOM     10  C   UNL     1      90.347 121.466 120.152  1.00  0.00    -0.007 C 
ATOM     11  C   UNL     1      88.800 123.786 122.554  1.00  0.00     0.010 A 
ATOM     12  C   UNL     1      88.557 125.111 122.879  1.00  0.00     0.046 A 
ATOM     13  C   UNL     1      87.514 123.799 124.399  1.00  0.00     0.087 A 
ATOM     14  C   UNL     1      90.109 124.473 120.676  1.00  0.00     0.009 A 
ATOM     15  C   UNL     1      89.069 126.160 122.115  1.00  0.00     0.027 A 
ATOM     16  C   UNL     1      89.851 125.812 121.005  1.00  0.00     0.003 A 
ATOM     17  H   UNL     1      87.440 125.922 124.490  1.00  0.00     0.166 HD
ENDROOT
BRANCH   6  18
ATOM     18  C   UNL     1      92.147 119.844 119.475  1.00  0.00     0.230 C 
ATOM     19  O   UNL     1      93.100 119.788 120.258  1.00  0.00    -0.274 OA
ATOM     20  N   UNL     1      92.344 119.725 118.095  1.00  0.00    -0.343 N 
BRANCH  20  21
ATOM     21  C   UNL     1      93.723 119.554 117.627  1.00  0.00     0.116 C 
ATOM     22  C   UNL     1      94.013 120.274 116.318  1.00  0.00     0.027 C 
ENDBRANCH  20  21
BRANCH  20  23
ATOM     23  C   UNL     1      91.306 119.924 117.078  1.00  0.00     0.116 C 
ATOM     24  C   UNL     1      90.640 118.629 116.640  1.00  0.00     0.027 C 
ENDBRANCH  20  23
ENDBRANCH   6  18
BRANCH   1  25
ATOM     25  C   UNL     1      88.160 118.971 121.757  1.00  0.00     0.112 C 
BRANCH  25  26
ATOM     26  C   UNL     1      87.969 117.507 122.036  1.00  0.00    -0.019 C 
ATOM     27  C   UNL     1      87.456 117.009 123.170  1.00  0.00     0.005 C 
ENDBRANCH  25  26
ENDBRANCH   1  25
TORSDOF 5
ENDMDL
MODEL 6
REMARK VINA RESULT:    -8.171      3.058      5.537
REMARK INTER + INTRA:         -11.536
REMARK INTER:                 -10.818
REMARK INTRA:                  -0.718
REMARK UNBOUND:                -0.977
REMARK SMILES C=CCN1C[C@H](C(=O)N(CC)CC)C=C2c3cccc4[nH]cc(c34)C[C@H]21
REMARK SMILES IDX 4 1 21 2 26 3 15 4 25 5 6 6 5 7 23 8 16 9 14 10 24 11 20 12
REMARK SMILES IDX 22 13 17 14 19 15 18 16 7 18 8 19 9 20 10 21 11 22 12 23
REMARK SMILES IDX 13 24 3 25 2 26 1 27
REMARK H PARENT 21 17
ROOT
ATOM      1  N   UNL     1      89.042 120.344 122.437  1.00  0.00    -0.291 NA
ATOM      2  N   UNL     1      86.818 125.292 125.088  1.00  0.00    -0.361 N 
ATOM      3  C   UNL     1      88.859 121.737 122.924  1.00  0.00     0.092 C 
ATOM      4  C   UNL     1      88.912 122.813 121.796  1.00  0.00    -0.026 C 
ATOM      5  C   UNL     1      87.702 121.884 123.982  1.00  0.00     0.061 C 
ATOM      6  C   UNL     1      89.942 121.161 120.206  1.00  0.00     0.116 C 
ATOM      7  C   UNL     1      90.123 120.264 121.445  1.00  0.00     0.103 C 
ATOM      8  C   UNL     1      87.441 123.314 124.297  1.00  0.00    -0.020 A 
ATOM      9  C   UNL     1      88.501 124.196 122.152  1.00  0.00    -0.011 A 
ATOM     10  C   UNL     1      89.383 122.521 120.565  1.00  0.00    -0.007 C 
ATOM     11  C   UNL     1      87.829 124.314 123.378  1.00  0.00     0.010 A 
ATOM     12  C   UNL     1      87.426 125.543 123.876  1.00  0.00     0.046 A 
ATOM     13  C   UNL     1      86.818 123.940 125.352  1.00  0.00     0.087 A 
ATOM     14  C   UNL     1      88.748 125.383 121.448  1.00  0.00     0.009 A 
ATOM     15  C   UNL     1      87.659 126.730 123.180  1.00  0.00     0.027 A 
ATOM     16  C   UNL     1      88.329 126.622 121.953  1.00  0.00     0.003 A 
ATOM     17  H   UNL     1      86.423 126.001 125.689  1.00  0.00     0.166 HD
ENDROOT
BRANCH   6  18
ATOM     18  C   UNL     1      91.308 121.299 119.503  1.00  0.00     0.230 C 
ATOM     19  O   UNL     1      92.093 122.198 119.818  1.00  0.00    -0.274 OA
ATOM     20  N   UNL     1      91.651 120.355 118.528  1.00  0.00    -0.343 N 
BRANCH  20  21
ATOM     21  C   UNL     1      92.963 120.497 117.890  1.00  0.00     0.116 C 
ATOM     22  C   UNL     1      94.045 119.636 118.528  1.00  0.00     0.027 C 
ENDBRANCH  20  21
BRANCH  20  23
ATOM     23  C   UNL     1      90.741 119.344 117.981  1.00  0.00     0.116 C 
ATOM     24  C   UNL     1      90.893 119.151 116.480  1.00  0.00     0.027 C 
ENDBRANCH  20  23
ENDBRANCH   6  18
BRANCH   1  25
ATOM     25  C   UNL     1      87.853 119.554 122.127  1.00  0.00     0.112 C 
BRANCH  25  26
ATOM     26  C   UNL     1      87.951 118.057 122.199  1.00  0.00    -0.019 C 
ATOM     27  C   UNL     1      87.204 117.283 122.999  1.00  0.00     0.005 C 
ENDBRANCH  25  26
ENDBRANCH   1  25
TORSDOF 5
ENDMDL
MODEL 7
REMARK VINA RESULT:    -8.080      2.561      6.914
REMARK INTER + INTRA:         -11.419
REMARK INTER:                 -10.632
REMARK INTRA:                  -0.786
REMARK UNBOUND:                -0.977
REMARK SMILES C=CCN1C[C@H](C(=O)N(CC)CC)C=C2c3cccc4[nH]cc(c34)C[C@H]21
REMARK SMILES IDX 4 1 21 2 26 3 15 4 25 5 6 6 5 7 23 8 16 9 14 10 24 11 20 12
REMARK SMILES IDX 22 13 17 14 19 15 18 16 7 18 8 19 9 20 10 21 11 22 12 23
REMARK SMILES IDX 13 24 3 25 2 26 1 27
REMARK H PARENT 21 17
ROOT
ATOM      1  N   UNL     1      88.805 122.161 121.447  1.00  0.00    -0.291 NA
ATOM      2  N   UNL     1      92.380 119.707 117.245  1.00  0.00    -0.361 N 
ATOM      3  C   UNL     1      89.662 121.961 120.248  1.00  0.00     0.092 C 
ATOM      4  C   UNL     1      90.850 122.966 120.145  1.00  0.00    -0.026 C 
ATOM      5  C   UNL     1      89.992 120.449 119.959  1.00  0.00     0.061 C 
ATOM      6  C   UNL     1      89.788 124.468 121.857  1.00  0.00     0.116 C 
ATOM      7  C   UNL     1      88.537 123.588 121.677  1.00  0.00     0.103 C 
ATOM      8  C   UNL     1      90.993 120.317 118.867  1.00  0.00    -0.020 A 
ATOM      9  C   UNL     1      91.889 122.691 119.119  1.00  0.00    -0.011 A 
ATOM     10  C   UNL     1      90.897 124.082 120.903  1.00  0.00    -0.007 C 
ATOM     11  C   UNL     1      91.844 121.403 118.563  1.00  0.00     0.010 A 
ATOM     12  C   UNL     1      92.712 121.008 117.558  1.00  0.00     0.046 A 
ATOM     13  C   UNL     1      91.340 119.275 118.038  1.00  0.00     0.087 A 
ATOM     14  C   UNL     1      92.859 123.565 118.610  1.00  0.00     0.009 A 
ATOM     15  C   UNL     1      93.687 121.869 117.050  1.00  0.00     0.027 A 
ATOM     16  C   UNL     1      93.741 123.157 117.599  1.00  0.00     0.003 A 
ATOM     17  H   UNL     1      92.843 119.151 116.540  1.00  0.00     0.166 HD
ENDROOT
BRANCH   6  18
ATOM     18  C   UNL     1      89.378 125.941 121.653  1.00  0.00     0.230 C 
ATOM     19  O   UNL     1      89.336 126.434 120.521  1.00  0.00    -0.274 OA
ATOM     20  N   UNL     1      89.017 126.692 122.777  1.00  0.00    -0.343 N 
BRANCH  20  21
ATOM     21  C   UNL     1      88.612 128.083 122.552  1.00  0.00     0.116 C 
ATOM     22  C   UNL     1      87.110 128.258 122.386  1.00  0.00     0.027 C 
ENDBRANCH  20  21
BRANCH  20  23
ATOM     23  C   UNL     1      89.173 126.251 124.167  1.00  0.00     0.116 C 
ATOM     24  C   UNL     1      87.907 125.637 124.746  1.00  0.00     0.027 C 
ENDBRANCH  20  23
ENDBRANCH   6  18
BRANCH   1  25
ATOM     25  C   UNL     1      89.095 121.380 122.646  1.00  0.00     0.112 C 
BRANCH  25  26
ATOM     26  C   UNL     1      88.061 120.403 123.130  1.00  0.00    -0.019 C 
ATOM     27  C   UNL     1      88.064 119.092 122.850  1.00  0.00     0.005 C 
ENDBRANCH  25  26
ENDBRANCH   1  25
TORSDOF 5
ENDMDL
MODEL 8
REMARK VINA RESULT:    -7.837      1.614      2.018
REMARK INTER + INTRA:         -11.105
REMARK INTER:                 -10.443
REMARK INTRA:                  -0.662
REMARK UNBOUND:                -0.977
REMARK SMILES C=CCN1C[C@H](C(=O)N(CC)CC)C=C2c3cccc4[nH]cc(c34)C[C@H]21
REMARK SMILES IDX 4 1 21 2 26 3 15 4 25 5 6 6 5 7 23 8 16 9 14 10 24 11 20 12
REMARK SMILES IDX 22 13 17 14 19 15 18 16 7 18 8 19 9 20 10 21 11 22 12 23
REMARK SMILES IDX 13 24 3 25 2 26 1 27
REMARK H PARENT 21 17
ROOT
ATOM      1  N   UNL     1      91.708 119.414 118.621  1.00  0.00    -0.291 NA
ATOM      2  N   UNL     1      89.192 122.211 123.344  1.00  0.00    -0.361 N 
ATOM      3  C   UNL     1      91.452 120.344 119.753  1.00  0.00     0.092 C 
ATOM      4  C   UNL     1      91.502 121.852 119.356  1.00  0.00    -0.026 C 
ATOM      5  C   UNL     1      90.253 119.898 120.671  1.00  0.00     0.061 C 
ATOM      6  C   UNL     1      92.655 121.291 117.195  1.00  0.00     0.116 C 
ATOM      7  C   UNL     1      92.827 119.882 117.791  1.00  0.00     0.103 C 
ATOM      8  C   UNL     1      89.923 120.948 121.671  1.00  0.00    -0.020 A 
ATOM      9  C   UNL     1      91.024 122.837 120.360  1.00  0.00    -0.011 A 
ATOM     10  C   UNL     1      92.029 122.253 118.180  1.00  0.00    -0.007 C 
ATOM     11  C   UNL     1      90.303 122.287 121.431  1.00  0.00     0.010 A 
ATOM     12  C   UNL     1      89.833 123.068 122.475  1.00  0.00     0.046 A 
ATOM     13  C   UNL     1      89.237 120.920 122.864  1.00  0.00     0.087 A 
ATOM     14  C   UNL     1      91.247 124.221 120.392  1.00  0.00     0.009 A 
ATOM     15  C   UNL     1      90.043 124.447 122.513  1.00  0.00     0.027 A 
ATOM     16  C   UNL     1      90.761 125.007 121.447  1.00  0.00     0.003 A 
ATOM     17  H   UNL     1      88.748 122.495 124.205  1.00  0.00     0.166 HD
ENDROOT
BRANCH   6  18
ATOM     18  C   UNL     1      94.039 121.797 116.738  1.00  0.00     0.230 C 
ATOM     19  O   UNL     1      94.953 121.959 117.553  1.00  0.00    -0.274 OA
ATOM     20  N   UNL     1      94.244 122.029 115.373  1.00  0.00    -0.343 N 
BRANCH  20  21
ATOM     21  C   UNL     1      95.574 122.491 114.965  1.00  0.00     0.116 C 
ATOM     22  C   UNL     1      95.541 123.541 113.864  1.00  0.00     0.027 C 
ENDBRANCH  20  21
BRANCH  20  23
ATOM     23  C   UNL     1      93.193 122.010 114.351  1.00  0.00     0.116 C 
ATOM     24  C   UNL     1      92.854 120.608 113.867  1.00  0.00     0.027 C 
ENDBRANCH  20  23
ENDBRANCH   6  18
BRANCH   1  25
ATOM     25  C   UNL     1      90.565 118.885 117.884  1.00  0.00     0.112 C 
BRANCH  25  26
ATOM     26  C   UNL     1      90.574 118.981 116.385  1.00  0.00    -0.019 C 
ATOM     27  C   UNL     1      89.475 119.035 115.619  1.00  0.00     0.005 C 
ENDBRANCH  25  26
ENDBRANCH   1  25
TORSDOF 5
ENDMDL
MODEL 9
REMARK VINA RESULT:    -7.720      4.160      7.692
REMARK INTER + INTRA:         -10.954
REMARK INTER:                 -10.070
REMARK INTRA:                  -0.883
REMARK UNBOUND:                -0.977
REMARK SMILES C=CCN1C[C@H](C(=O)N(CC)CC)C=C2c3cccc4[nH]cc(c34)C[C@H]21
REMARK SMILES IDX 4 1 21 2 26 3 15 4 25 5 6 6 5 7 23 8 16 9 14 10 24 11 20 12
REMARK SMILES IDX 22 13 17 14 19 15 18 16 7 18 8 19 9 20 10 21 11 22 12 23
REMARK SMILES IDX 13 24 3 25 2 26 1 27
REMARK H PARENT 21 17
ROOT
ATOM      1  N   UNL     1      87.242 122.871 123.169  1.00  0.00    -0.291 NA
ATOM      2  N   UNL     1      90.397 118.328 120.749  1.00  0.00    -0.361 N 
ATOM      3  C   UNL     1      88.129 122.065 122.289  1.00  0.00     0.092 C 
ATOM      4  C   UNL     1      89.559 122.663 122.115  1.00  0.00    -0.026 C 
ATOM      5  C   UNL     1      88.043 120.517 122.561  1.00  0.00     0.061 C 
ATOM      6  C   UNL     1      88.793 124.878 123.023  1.00  0.00     0.116 C 
ATOM      7  C   UNL     1      87.370 124.307 122.883  1.00  0.00     0.103 C 
ATOM      8  C   UNL     1      89.076 119.777 121.788  1.00  0.00    -0.020 A 
ATOM      9  C   UNL     1      90.580 121.809 121.455  1.00  0.00    -0.011 A 
ATOM     10  C   UNL     1      89.841 123.932 122.479  1.00  0.00    -0.007 C 
ATOM     11  C   UNL     1      90.229 120.455 121.334  1.00  0.00     0.010 A 
ATOM     12  C   UNL     1      91.050 119.540 120.697  1.00  0.00     0.046 A 
ATOM     13  C   UNL     1      89.197 118.459 121.413  1.00  0.00     0.087 A 
ATOM     14  C   UNL     1      91.809 122.195 120.902  1.00  0.00     0.009 A 
ATOM     15  C   UNL     1      92.279 119.913 120.149  1.00  0.00     0.027 A 
ATOM     16  C   UNL     1      92.640 121.262 120.266  1.00  0.00     0.003 A 
ATOM     17  H   UNL     1      90.754 117.466 120.361  1.00  0.00     0.166 HD
ENDROOT
BRANCH   6  18
ATOM     18  C   UNL     1      88.846 126.234 122.290  1.00  0.00     0.230 C 
ATOM     19  O   UNL     1      89.165 126.296 121.098  1.00  0.00    -0.274 OA
ATOM     20  N   UNL     1      88.484 127.386 122.998  1.00  0.00    -0.343 N 
BRANCH  20  21
ATOM     21  C   UNL     1      88.523 128.659 122.271  1.00  0.00     0.116 C 
ATOM     22  C   UNL     1      88.915 129.843 123.143  1.00  0.00     0.027 C 
ENDBRANCH  20  21
BRANCH  20  23
ATOM     23  C   UNL     1      88.234 127.441 124.442  1.00  0.00     0.116 C 
ATOM     24  C   UNL     1      86.754 127.473 124.792  1.00  0.00     0.027 C 
ENDBRANCH  20  23
ENDBRANCH   6  18
BRANCH   1  25
ATOM     25  C   UNL     1      87.166 122.523 124.586  1.00  0.00     0.112 C 
BRANCH  25  26
ATOM     26  C   UNL     1      86.629 123.546 125.545  1.00  0.00    -0.019 C 
ATOM     27  C   UNL     1      87.376 124.236 126.419  1.00  0.00     0.005 C 
ENDBRANCH  25  26
ENDBRANCH   1  25
TORSDOF 5
ENDMDL
MODEL 10
REMARK VINA RESULT:    -7.584      2.119      6.655
REMARK INTER + INTRA:         -10.778
REMARK INTER:                 -10.858
REMARK INTRA:                   0.080
REMARK UNBOUND:                -0.977
REMARK SMILES C=CCN1C[C@H](C(=O)N(CC)CC)C=C2c3cccc4[nH]cc(c34)C[C@H]21
REMARK SMILES IDX 4 1 21 2 26 3 15 4 25 5 6 6 5 7 23 8 16 9 14 10 24 11 20 12
REMARK SMILES IDX 22 13 17 14 19 15 18 16 7 18 8 19 9 20 10 21 11 22 12 23
REMARK SMILES IDX 13 24 3 25 2 26 1 27
REMARK H PARENT 21 17
ROOT
ATOM      1  N   UNL     1      93.258 121.605 115.590  1.00  0.00    -0.291 NA
ATOM      2  N   UNL     1      95.349 127.251 115.152  1.00  0.00    -0.361 N 
ATOM      3  C   UNL     1      93.569 123.032 115.867  1.00  0.00     0.092 C 
ATOM      4  C   UNL     1      94.269 123.272 117.240  1.00  0.00    -0.026 C 
ATOM      5  C   UNL     1      94.172 123.794 114.628  1.00  0.00     0.061 C 
ATOM      6  C   UNL     1      93.614 120.976 118.026  1.00  0.00     0.116 C 
ATOM      7  C   UNL     1      92.709 120.939 116.780  1.00  0.00     0.103 C 
ATOM      8  C   UNL     1      94.633 125.156 115.007  1.00  0.00    -0.020 A 
ATOM      9  C   UNL     1      94.830 124.624 117.493  1.00  0.00    -0.011 A 
ATOM     10  C   UNL     1      94.298 122.315 118.192  1.00  0.00    -0.007 C 
ATOM     11  C   UNL     1      94.934 125.442 116.357  1.00  0.00     0.010 A 
ATOM     12  C   UNL     1      95.390 126.748 116.435  1.00  0.00     0.046 A 
ATOM     13  C   UNL     1      94.894 126.291 114.275  1.00  0.00     0.087 A 
ATOM     14  C   UNL     1      95.212 125.190 118.717  1.00  0.00     0.009 A 
ATOM     15  C   UNL     1      95.781 127.318 117.647  1.00  0.00     0.027 A 
ATOM     16  C   UNL     1      95.682 126.509 118.788  1.00  0.00     0.003 A 
ATOM     17  H   UNL     1      95.623 128.189 114.896  1.00  0.00     0.166 HD
ENDROOT
BRANCH   6  18
ATOM     18  C   UNL     1      92.753 120.643 119.261  1.00  0.00     0.230 C 
ATOM     19  O   UNL     1      92.851 119.548 119.824  1.00  0.00    -0.274 OA
ATOM     20  N   UNL     1      91.888 121.628 119.752  1.00  0.00    -0.343 N 
BRANCH  20  21
ATOM     21  C   UNL     1      91.096 121.293 120.940  1.00  0.00     0.116 C 
ATOM     22  C   UNL     1      89.651 120.935 120.625  1.00  0.00     0.027 C 
ENDBRANCH  20  21
BRANCH  20  23
ATOM     23  C   UNL     1      91.590 122.896 119.079  1.00  0.00     0.116 C 
ATOM     24  C   UNL     1      91.497 124.075 120.035  1.00  0.00     0.027 C 
ENDBRANCH  20  23
ENDBRANCH   6  18
BRANCH   1  25
ATOM     25  C   UNL     1      94.222 120.818 114.825  1.00  0.00     0.112 C 
BRANCH  25  26
ATOM     26  C   UNL     1      93.931 120.542 113.378  1.00  0.00    -0.019 C 
ATOM     27  C   UNL     1      94.828 120.646 112.387  1.00  0.00     0.005 C 
ENDBRANCH  25  26
ENDBRANCH   1  25
TORSDOF 5
ENDMDL
MODEL 11
REMARK VINA RESULT:    -7.339      4.897      8.327
REMARK INTER + INTRA:         -10.461
REMARK INTER:                  -9.688
REMARK INTRA:                  -0.773
REMARK UNBOUND:                -0.977
REMARK SMILES C=CCN1C[C@H](C(=O)N(CC)CC)C=C2c3cccc4[nH]cc(c34)C[C@H]21
REMARK SMILES IDX 4 1 21 2 26 3 15 4 25 5 6 6 5 7 23 8 16 9 14 10 24 11 20 12
REMARK SMILES IDX 22 13 17 14 19 15 18 16 7 18 8 19 9 20 10 21 11 22 12 23
REMARK SMILES IDX 13 24 3 25 2 26 1 27
REMARK H PARENT 21 17
ROOT
ATOM      1  N   UNL     1      90.082 124.098 122.489  1.00  0.00    -0.291 NA
ATOM      2  N   UNL     1      90.695 118.355 120.729  1.00  0.00    -0.361 N 
ATOM      3  C   UNL     1      90.040 122.612 122.441  1.00  0.00     0.092 C 
ATOM      4  C   UNL     1      88.614 122.013 122.639  1.00  0.00    -0.026 C 
ATOM      5  C   UNL     1      90.905 121.998 121.278  1.00  0.00     0.061 C 
ATOM      6  C   UNL     1      87.769 124.205 123.533  1.00  0.00     0.116 C 
ATOM      7  C   UNL     1      89.251 124.619 123.583  1.00  0.00     0.103 C 
ATOM      8  C   UNL     1      90.685 120.532 121.160  1.00  0.00    -0.020 A 
ATOM      9  C   UNL     1      88.439 120.563 122.368  1.00  0.00    -0.011 A 
ATOM     10  C   UNL     1      87.595 122.762 123.112  1.00  0.00    -0.007 C 
ATOM     11  C   UNL     1      89.502 119.959 121.678  1.00  0.00     0.010 A 
ATOM     12  C   UNL     1      89.514 118.603 121.394  1.00  0.00     0.046 A 
ATOM     13  C   UNL     1      91.413 119.521 120.578  1.00  0.00     0.087 A 
ATOM     14  C   UNL     1      87.383 119.728 122.759  1.00  0.00     0.009 A 
ATOM     15  C   UNL     1      88.463 117.765 121.771  1.00  0.00     0.027 A 
ATOM     16  C   UNL     1      87.397 118.358 122.460  1.00  0.00     0.003 A 
ATOM     17  H   UNL     1      90.985 117.447 120.395  1.00  0.00     0.166 HD
ENDROOT
BRANCH   6  18
ATOM     18  C   UNL     1      87.150 124.448 124.925  1.00  0.00     0.230 C 
ATOM     19  O   UNL     1      87.251 123.600 125.818  1.00  0.00    -0.274 OA
ATOM     20  N   UNL     1      86.507 125.668 125.162  1.00  0.00    -0.343 N 
BRANCH  20  21
ATOM     21  C   UNL     1      85.946 125.880 126.500  1.00  0.00     0.116 C 
ATOM     22  C   UNL     1      85.203 127.201 126.643  1.00  0.00     0.027 C 
ENDBRANCH  20  21
BRANCH  20  23
ATOM     23  C   UNL     1      86.206 126.672 124.137  1.00  0.00     0.116 C 
ATOM     24  C   UNL     1      87.247 127.778 124.058  1.00  0.00     0.027 C 
ENDBRANCH  20  23
ENDBRANCH   6  18
BRANCH   1  25
ATOM     25  C   UNL     1      89.992 124.836 121.232  1.00  0.00     0.112 C 
BRANCH  25  26
ATOM     26  C   UNL     1      89.776 126.322 121.290  1.00  0.00    -0.019 C 
ATOM     27  C   UNL     1      88.700 126.954 120.798  1.00  0.00     0.005 C 
ENDBRANCH  25  26
ENDBRANCH   1  25
TORSDOF 5
ENDMDL
MODEL 12
REMARK VINA RESULT:    -7.330      2.862      5.748
REMARK INTER + INTRA:         -10.450
REMARK INTER:                  -9.846
REMARK INTRA:                  -0.605
REMARK UNBOUND:                -0.977
REMARK SMILES C=CCN1C[C@H](C(=O)N(CC)CC)C=C2c3cccc4[nH]cc(c34)C[C@H]21
REMARK SMILES IDX 4 1 21 2 26 3 15 4 25 5 6 6 5 7 23 8 16 9 14 10 24 11 20 12
REMARK SMILES IDX 22 13 17 14 19 15 18 16 7 18 8 19 9 20 10 21 11 22 12 23
REMARK SMILES IDX 13 24 3 25 2 26 1 27
REMARK H PARENT 21 17
ROOT
ATOM      1  N   UNL     1      88.824 121.435 122.546  1.00  0.00    -0.291 NA
ATOM      2  N   UNL     1      86.254 126.397 124.833  1.00  0.00    -0.361 N 
ATOM      3  C   UNL     1      88.568 122.834 122.978  1.00  0.00     0.092 C 
ATOM      4  C   UNL     1      88.720 123.886 121.836  1.00  0.00    -0.026 C 
ATOM      5  C   UNL     1      87.305 122.983 123.907  1.00  0.00     0.061 C 
ATOM      6  C   UNL     1      89.938 122.220 120.402  1.00  0.00     0.116 C 
ATOM      7  C   UNL     1      90.004 121.354 121.674  1.00  0.00     0.103 C 
ATOM      8  C   UNL     1      86.988 124.414 124.159  1.00  0.00    -0.020 A 
ATOM      9  C   UNL     1      88.252 125.268 122.115  1.00  0.00    -0.011 A 
ATOM     10  C   UNL     1      89.322 123.576 120.669  1.00  0.00    -0.007 C 
ATOM     11  C   UNL     1      87.453 125.401 123.262  1.00  0.00     0.010 A 
ATOM     12  C   UNL     1      86.980 126.633 123.686  1.00  0.00     0.046 A 
ATOM     13  C   UNL     1      86.249 125.051 125.128  1.00  0.00     0.087 A 
ATOM     14  C   UNL     1      88.550 126.444 121.413  1.00  0.00     0.009 A 
ATOM     15  C   UNL     1      87.265 127.808 122.989  1.00  0.00     0.027 A 
ATOM     16  C   UNL     1      88.061 127.686 121.842  1.00  0.00     0.003 A 
ATOM     17  H   UNL     1      85.787 127.111 125.373  1.00  0.00     0.166 HD
ENDROOT
BRANCH   6  18
ATOM     18  C   UNL     1      91.367 122.368 119.841  1.00  0.00     0.230 C 
ATOM     19  O   UNL     1      91.992 123.425 119.975  1.00  0.00    -0.274 OA
ATOM     20  N   UNL     1      91.952 121.262 119.214  1.00  0.00    -0.343 N 
BRANCH  20  21
ATOM     21  C   UNL     1      93.319 121.424 118.708  1.00  0.00     0.116 C 
ATOM     22  C   UNL     1      94.382 120.862 119.641  1.00  0.00     0.027 C 
ENDBRANCH  20  21
BRANCH  20  23
ATOM     23  C   UNL     1      91.250 120.020 118.876  1.00  0.00     0.116 C 
ATOM     24  C   UNL     1      91.502 119.560 117.448  1.00  0.00     0.027 C 
ENDBRANCH  20  23
ENDBRANCH   6  18
BRANCH   1  25
ATOM     25  C   UNL     1      87.687 120.616 122.134  1.00  0.00     0.112 C 
BRANCH  25  26
ATOM     26  C   UNL     1      87.886 119.133 122.003  1.00  0.00    -0.019 C 
ATOM     27  C   UNL     1      88.059 118.294 123.035  1.00  0.00     0.005 C 
ENDBRANCH  25  26
ENDBRANCH   1  25
TORSDOF 5
ENDMDL
MODEL 13
REMARK VINA RESULT:    -7.284      1.979      3.934
REMARK INTER + INTRA:         -10.390
REMARK INTER:                  -9.914
REMARK INTRA:                  -0.476
REMARK UNBOUND:                -0.977
REMARK SMILES C=CCN1C[C@H](C(=O)N(CC)CC)C=C2c3cccc4[nH]cc(c34)C[C@H]21
REMARK SMILES IDX 4 1 21 2 26 3 15 4 25 5 6 6 5 7 23 8 16 9 14 10 24 11 20 12
REMARK SMILES IDX 22 13 17 14 19 15 18 16 7 18 8 19 9 20 10 21 11 22 12 23
REMARK SMILES IDX 13 24 3 25 2 26 1 27
REMARK H PARENT 21 17
ROOT
ATOM      1  N   UNL     1      93.005 123.862 117.927  1.00  0.00    -0.291 NA
ATOM      2  N   UNL     1      89.649 122.219 122.669  1.00  0.00    -0.361 N 
ATOM      3  C   UNL     1      92.007 123.187 118.798  1.00  0.00     0.092 C 
ATOM      4  C   UNL     1      92.131 121.633 118.815  1.00  0.00    -0.026 C 
ATOM      5  C   UNL     1      91.813 123.892 120.193  1.00  0.00     0.061 C 
ATOM      6  C   UNL     1      93.571 121.680 116.755  1.00  0.00     0.116 C 
ATOM      7  C   UNL     1      93.156 123.159 116.645  1.00  0.00     0.103 C 
ATOM      8  C   UNL     1      90.948 123.080 121.089  1.00  0.00    -0.020 A 
ATOM      9  C   UNL     1      91.340 120.896 119.834  1.00  0.00    -0.011 A 
ATOM     10  C   UNL     1      92.867 120.975 117.893  1.00  0.00    -0.007 C 
ATOM     11  C   UNL     1      90.805 121.694 120.857  1.00  0.00     0.010 A 
ATOM     12  C   UNL     1      90.002 121.166 121.854  1.00  0.00     0.046 A 
ATOM     13  C   UNL     1      90.221 123.388 122.216  1.00  0.00     0.087 A 
ATOM     14  C   UNL     1      91.025 119.530 119.867  1.00  0.00     0.009 A 
ATOM     15  C   UNL     1      89.689 119.806 121.901  1.00  0.00     0.027 A 
ATOM     16  C   UNL     1      90.218 119.000 120.885  1.00  0.00     0.003 A 
ATOM     17  H   UNL     1      89.060 122.140 123.486  1.00  0.00     0.166 HD
ENDROOT
BRANCH   6  18
ATOM     18  C   UNL     1      93.267 120.989 115.411  1.00  0.00     0.230 C 
ATOM     19  O   UNL     1      92.258 120.289 115.274  1.00  0.00    -0.274 OA
ATOM     20  N   UNL     1      94.139 121.209 114.338  1.00  0.00    -0.343 N 
BRANCH  20  21
ATOM     21  C   UNL     1      93.815 120.557 113.066  1.00  0.00     0.116 C 
ATOM     22  C   UNL     1      94.988 120.496 112.099  1.00  0.00     0.027 C 
ENDBRANCH  20  21
BRANCH  20  23
ATOM     23  C   UNL     1      95.430 121.897 114.434  1.00  0.00     0.116 C 
ATOM     24  C   UNL     1      95.374 123.344 113.968  1.00  0.00     0.027 C 
ENDBRANCH  20  23
ENDBRANCH   6  18
BRANCH   1  25
ATOM     25  C   UNL     1      94.250 124.331 118.531  1.00  0.00     0.112 C 
BRANCH  25  26
ATOM     26  C   UNL     1      95.203 125.121 117.680  1.00  0.00    -0.019 C 
ATOM     27  C   UNL     1      95.754 126.290 118.039  1.00  0.00     0.005 C 
ENDBRANCH  25  26
ENDBRANCH   1  25
TORSDOF 5
ENDMDL
MODEL 14
REMARK VINA RESULT:    -7.177      3.546      7.240
REMARK INTER + INTRA:         -10.252
REMARK INTER:                  -9.653
REMARK INTRA:                  -0.599
REMARK UNBOUND:                -0.977
REMARK SMILES C=CCN1C[C@H](C(=O)N(CC)CC)C=C2c3cccc4[nH]cc(c34)C[C@H]21
REMARK SMILES IDX 4 1 21 2 26 3 15 4 25 5 6 6 5 7 23 8 16 9 14 10 24 11 20 12
REMARK SMILES IDX 22 13 17 14 19 15 18 16 7 18 8 19 9 20 10 21 11 22 12 23
REMARK SMILES IDX 13 24 3 25 2 26 1 27
REMARK H PARENT 21 17
ROOT
ATOM      1  N   UNL     1      89.661 123.972 120.350  1.00  0.00    -0.291 NA
ATOM      2  N   UNL     1      87.939 128.370 124.112  1.00  0.00    -0.361 N 
ATOM      3  C   UNL     1      88.929 124.762 121.375  1.00  0.00     0.092 C 
ATOM      4  C   UNL     1      88.782 124.035 122.747  1.00  0.00    -0.026 C 
ATOM      5  C   UNL     1      89.357 126.276 121.424  1.00  0.00     0.061 C 
ATOM      6  C   UNL     1      89.399 121.835 121.699  1.00  0.00     0.116 C 
ATOM      7  C   UNL     1      89.232 122.567 120.354  1.00  0.00     0.103 C 
ATOM      8  C   UNL     1      88.733 126.974 122.580  1.00  0.00    -0.020 A 
ATOM      9  C   UNL     1      88.281 124.836 123.894  1.00  0.00    -0.011 A 
ATOM     10  C   UNL     1      89.025 122.713 122.873  1.00  0.00    -0.007 C 
ATOM     11  C   UNL     1      88.283 126.225 123.689  1.00  0.00     0.010 A 
ATOM     12  C   UNL     1      87.799 127.106 124.643  1.00  0.00     0.046 A 
ATOM     13  C   UNL     1      88.510 128.302 122.859  1.00  0.00     0.087 A 
ATOM     14  C   UNL     1      87.768 124.377 125.115  1.00  0.00     0.009 A 
ATOM     15  C   UNL     1      87.293 126.660 125.865  1.00  0.00     0.027 A 
ATOM     16  C   UNL     1      87.288 125.275 126.080  1.00  0.00     0.003 A 
ATOM     17  H   UNL     1      87.668 129.222 124.581  1.00  0.00     0.166 HD
ENDROOT
BRANCH   6  18
ATOM     18  C   UNL     1      88.531 120.561 121.669  1.00  0.00     0.230 C 
ATOM     19  O   UNL     1      87.298 120.635 121.692  1.00  0.00    -0.274 OA
ATOM     20  N   UNL     1      89.173 119.322 121.574  1.00  0.00    -0.343 N 
BRANCH  20  21
ATOM     21  C   UNL     1      88.324 118.128 121.527  1.00  0.00     0.116 C 
ATOM     22  C   UNL     1      87.802 117.700 122.892  1.00  0.00     0.027 C 
ENDBRANCH  20  21
BRANCH  20  23
ATOM     23  C   UNL     1      90.621 119.115 121.687  1.00  0.00     0.116 C 
ATOM     24  C   UNL     1      91.372 119.420 120.400  1.00  0.00     0.027 C 
ENDBRANCH  20  23
ENDBRANCH   6  18
BRANCH   1  25
ATOM     25  C   UNL     1      91.099 124.184 120.205  1.00  0.00     0.112 C 
BRANCH  25  26
ATOM     26  C   UNL     1      91.908 123.136 119.495  1.00  0.00    -0.019 C 
ATOM     27  C   UNL     1      92.673 123.366 118.418  1.00  0.00     0.005 C 
ENDBRANCH  25  26
ENDBRANCH   1  25
TORSDOF 5
ENDMDL
MODEL 15
REMARK VINA RESULT:    -7.105      1.827      6.857
REMARK INTER + INTRA:         -10.159
REMARK INTER:                  -9.798
REMARK INTRA:                  -0.361
REMARK UNBOUND:                -0.977
REMARK SMILES C=CCN1C[C@H](C(=O)N(CC)CC)C=C2c3cccc4[nH]cc(c34)C[C@H]21
REMARK SMILES IDX 4 1 21 2 26 3 15 4 25 5 6 6 5 7 23 8 16 9 14 10 24 11 20 12
REMARK SMILES IDX 22 13 17 14 19 15 18 16 7 18 8 19 9 20 10 21 11 22 12 23
REMARK SMILES IDX 13 24 3 25 2 26 1 27
REMARK H PARENT 21 17
ROOT
ATOM      1  N   UNL     1      92.583 121.570 116.841  1.00  0.00    -0.291 NA
ATOM      2  N   UNL     1      95.666 126.332 114.774  1.00  0.00    -0.361 N 
ATOM      3  C   UNL     1      93.143 122.936 116.669  1.00  0.00     0.092 C 
ATOM      4  C   UNL     1      93.857 123.492 117.940  1.00  0.00    -0.026 C 
ATOM      5  C   UNL     1      93.891 123.140 115.298  1.00  0.00     0.061 C 
ATOM      6  C   UNL     1      92.787 121.721 119.369  1.00  0.00     0.116 C 
ATOM      7  C   UNL     1      91.908 121.430 118.139  1.00  0.00     0.103 C 
ATOM      8  C   UNL     1      94.585 124.454 115.255  1.00  0.00    -0.020 A 
ATOM      9  C   UNL     1      94.649 124.739 117.788  1.00  0.00    -0.011 A 
ATOM     10  C   UNL     1      93.699 122.908 119.147  1.00  0.00    -0.007 C 
ATOM     11  C   UNL     1      94.915 125.111 116.461  1.00  0.00     0.010 A 
ATOM     12  C   UNL     1      95.598 126.276 116.150  1.00  0.00     0.046 A 
ATOM     13  C   UNL     1      95.057 125.228 114.220  1.00  0.00     0.087 A 
ATOM     14  C   UNL     1      95.112 125.602 118.791  1.00  0.00     0.009 A 
ATOM     15  C   UNL     1      96.070 127.138 117.142  1.00  0.00     0.027 A 
ATOM     16  C   UNL     1      95.811 126.774 118.470  1.00  0.00     0.003 A 
ATOM     17  H   UNL     1      96.108 127.075 114.252  1.00  0.00     0.166 HD
ENDROOT
BRANCH   6  18
ATOM     18  C   UNL     1      91.864 121.959 120.581  1.00  0.00     0.230 C 
ATOM     19  O   UNL     1      91.702 123.095 121.039  1.00  0.00    -0.274 OA
ATOM     20  N   UNL     1      91.182 120.863 121.121  1.00  0.00    -0.343 N 
BRANCH  20  21
ATOM     21  C   UNL     1      90.295 121.121 122.260  1.00  0.00     0.116 C 
ATOM     22  C   UNL     1      90.828 120.581 123.579  1.00  0.00     0.027 C 
ENDBRANCH  20  21
BRANCH  20  23
ATOM     23  C   UNL     1      91.413 119.464 120.750  1.00  0.00     0.116 C 
ATOM     24  C   UNL     1      90.144 118.625 120.756  1.00  0.00     0.027 C 
ENDBRANCH  20  23
ENDBRANCH   6  18
BRANCH   1  25
ATOM     25  C   UNL     1      93.400 120.428 116.438  1.00  0.00     0.112 C 
BRANCH  25  26
ATOM     26  C   UNL     1      93.164 119.824 115.083  1.00  0.00    -0.019 C 
ATOM     27  C   UNL     1      92.201 120.212 114.234  1.00  0.00     0.005 C 
ENDBRANCH  25  26
ENDBRANCH   1  25
TORSDOF 5
ENDMDL
MODEL 16
REMARK VINA RESULT:    -7.034      1.952      3.490
REMARK INTER + INTRA:         -10.067
REMARK INTER:                  -9.151
REMARK INTRA:                  -0.917
REMARK UNBOUND:                -0.977
REMARK SMILES C=CCN1C[C@H](C(=O)N(CC)CC)C=C2c3cccc4[nH]cc(c34)C[C@H]21
REMARK SMILES IDX 4 1 21 2 26 3 15 4 25 5 6 6 5 7 23 8 16 9 14 10 24 11 20 12
REMARK SMILES IDX 22 13 17 14 19 15 18 16 7 18 8 19 9 20 10 21 11 22 12 23
REMARK SMILES IDX 13 24 3 25 2 26 1 27
REMARK H PARENT 21 17
ROOT
ATOM      1  N   UNL     1      91.199 121.546 121.233  1.00  0.00    -0.291 NA
ATOM      2  N   UNL     1      87.671 125.319 124.358  1.00  0.00    -0.361 N 
ATOM      3  C   UNL     1      90.620 122.766 121.853  1.00  0.00     0.092 C 
ATOM      4  C   UNL     1      90.308 123.906 120.834  1.00  0.00    -0.026 C 
ATOM      5  C   UNL     1      89.508 122.457 122.925  1.00  0.00     0.061 C 
ATOM      6  C   UNL     1      91.737 122.798 119.089  1.00  0.00     0.116 C 
ATOM      7  C   UNL     1      92.221 121.890 120.234  1.00  0.00     0.103 C 
ATOM      8  C   UNL     1      88.837 123.705 123.377  1.00  0.00    -0.020 A 
ATOM      9  C   UNL     1      89.510 125.060 121.325  1.00  0.00    -0.011 A 
ATOM     10  C   UNL     1      90.805 123.884 119.580  1.00  0.00    -0.007 C 
ATOM     11  C   UNL     1      88.873 124.855 122.559  1.00  0.00     0.010 A 
ATOM     12  C   UNL     1      88.135 125.852 123.175  1.00  0.00     0.046 A 
ATOM     13  C   UNL     1      88.089 124.012 124.490  1.00  0.00     0.087 A 
ATOM     14  C   UNL     1      89.363 126.324 120.738  1.00  0.00     0.009 A 
ATOM     15  C   UNL     1      87.975 127.112 122.596  1.00  0.00     0.027 A 
ATOM     16  C   UNL     1      88.606 127.326 121.363  1.00  0.00     0.003 A 
ATOM     17  H   UNL     1      87.100 125.816 125.027  1.00  0.00     0.166 HD
ENDROOT
BRANCH   6  18
ATOM     18  C   UNL     1      92.973 123.408 118.397  1.00  0.00     0.230 C 
ATOM     19  O   UNL     1      93.452 124.478 118.787  1.00  0.00    -0.274 OA
ATOM     20  N   UNL     1      93.563 122.700 117.345  1.00  0.00    -0.343 N 
BRANCH  20  21
ATOM     21  C   UNL     1      94.749 123.292 116.719  1.00  0.00     0.116 C 
ATOM     22  C   UNL     1      94.628 123.443 115.210  1.00  0.00     0.027 C 
ENDBRANCH  20  21
BRANCH  20  23
ATOM     23  C   UNL     1      92.994 121.505 116.714  1.00  0.00     0.116 C 
ATOM     24  C   UNL     1      93.761 120.232 117.038  1.00  0.00     0.027 C 
ENDBRANCH  20  23
ENDBRANCH   6  18
BRANCH   1  25
ATOM     25  C   UNL     1      90.296 120.463 120.852  1.00  0.00     0.112 C 
BRANCH  25  26
ATOM     26  C   UNL     1      90.779 119.446 119.857  1.00  0.00    -0.019 C 
ATOM     27  C   UNL     1      90.407 119.406 118.569  1.00  0.00     0.005 C 
ENDBRANCH  25  26
ENDBRANCH   1  25
TORSDOF 5
ENDMDL
MODEL 17
REMARK VINA RESULT:    -6.963      3.941      7.778
REMARK INTER + INTRA:          -9.975
REMARK INTER:                  -9.246
REMARK INTRA:                  -0.729
REMARK UNBOUND:                -0.977
REMARK SMILES C=CCN1C[C@H](C(=O)N(CC)CC)C=C2c3cccc4[nH]cc(c34)C[C@H]21
REMARK SMILES IDX 4 1 21 2 26 3 15 4 25 5 6 6 5 7 23 8 16 9 14 10 24 11 20 12
REMARK SMILES IDX 22 13 17 14 19 15 18 16 7 18 8 19 9 20 10 21 11 22 12 23
REMARK SMILES IDX 13 24 3 25 2 26 1 27
REMARK H PARENT 21 17
ROOT
ATOM      1  N   UNL     1      89.113 124.164 120.845  1.00  0.00    -0.291 NA
ATOM      2  N   UNL     1      87.859 129.257 123.837  1.00  0.00    -0.361 N 
ATOM      3  C   UNL     1      88.534 125.150 121.796  1.00  0.00     0.092 C 
ATOM      4  C   UNL     1      88.674 124.739 123.295  1.00  0.00    -0.026 C 
ATOM      5  C   UNL     1      88.884 126.643 121.441  1.00  0.00     0.061 C 
ATOM      6  C   UNL     1      89.209 122.371 122.643  1.00  0.00     0.116 C 
ATOM      7  C   UNL     1      88.767 122.788 121.228  1.00  0.00     0.103 C 
ATOM      8  C   UNL     1      88.440 127.569 122.517  1.00  0.00    -0.020 A 
ATOM      9  C   UNL     1      88.344 125.766 124.317  1.00  0.00    -0.011 A 
ATOM     10  C   UNL     1      89.005 123.480 123.652  1.00  0.00    -0.007 C 
ATOM     11  C   UNL     1      88.235 127.076 123.825  1.00  0.00     0.010 A 
ATOM     12  C   UNL     1      87.884 128.138 124.642  1.00  0.00     0.046 A 
ATOM     13  C   UNL     1      88.200 128.923 122.544  1.00  0.00     0.087 A 
ATOM     14  C   UNL     1      88.082 125.579 125.681  1.00  0.00     0.009 A 
ATOM     15  C   UNL     1      87.628 127.964 126.003  1.00  0.00     0.027 A 
ATOM     16  C   UNL     1      87.735 126.660 126.505  1.00  0.00     0.003 A 
ATOM     17  H   UNL     1      87.631 130.187 124.156  1.00  0.00     0.166 HD
ENDROOT
BRANCH   6  18
ATOM     18  C   UNL     1      88.418 121.111 123.048  1.00  0.00     0.230 C 
ATOM     19  O   UNL     1      87.359 121.203 123.676  1.00  0.00    -0.274 OA
ATOM     20  N   UNL     1      88.910 119.862 122.650  1.00  0.00    -0.343 N 
BRANCH  20  21
ATOM     21  C   UNL     1      88.128 118.682 123.030  1.00  0.00     0.116 C 
ATOM     22  C   UNL     1      87.013 118.350 122.049  1.00  0.00     0.027 C 
ENDBRANCH  20  21
BRANCH  20  23
ATOM     23  C   UNL     1      90.222 119.633 122.035  1.00  0.00     0.116 C 
ATOM     24  C   UNL     1      90.149 119.419 120.531  1.00  0.00     0.027 C 
ENDBRANCH  20  23
ENDBRANCH   6  18
BRANCH   1  25
ATOM     25  C   UNL     1      90.488 124.358 120.395  1.00  0.00     0.112 C 
BRANCH  25  26
ATOM     26  C   UNL     1      91.233 123.175 119.843  1.00  0.00    -0.019 C 
ATOM     27  C   UNL     1      92.283 123.256 119.014  1.00  0.00     0.005 C 
ENDBRANCH  25  26
ENDBRANCH   1  25
TORSDOF 5
ENDMDL
MODEL 18
REMARK VINA RESULT:    -6.693      1.447      1.994
REMARK INTER + INTRA:          -9.626
REMARK INTER:                 -10.370
REMARK INTRA:                   0.744
REMARK UNBOUND:                -0.977
REMARK SMILES C=CCN1C[C@H](C(=O)N(CC)CC)C=C2c3cccc4[nH]cc(c34)C[C@H]21
REMARK SMILES IDX 4 1 21 2 26 3 15 4 25 5 6 6 5 7 23 8 16 9 14 10 24 11 20 12
REMARK SMILES IDX 22 13 17 14 19 15 18 16 7 18 8 19 9 20 10 21 11 22 12 23
REMARK SMILES IDX 13 24 3 25 2 26 1 27
REMARK H PARENT 21 17
ROOT
ATOM      1  N   UNL     1      93.882 120.095 117.437  1.00  0.00    -0.291 NA
ATOM      2  N   UNL     1      90.979 121.331 122.585  1.00  0.00    -0.361 N 
ATOM      3  C   UNL     1      93.369 120.783 118.651  1.00  0.00     0.092 C 
ATOM      4  C   UNL     1      92.661 122.141 118.357  1.00  0.00    -0.026 C 
ATOM      5  C   UNL     1      92.643 119.816 119.660  1.00  0.00     0.061 C 
ATOM      6  C   UNL     1      93.657 122.211 116.050  1.00  0.00     0.116 C 
ATOM      7  C   UNL     1      94.539 121.042 116.526  1.00  0.00     0.103 C 
ATOM      8  C   UNL     1      91.992 120.578 120.760  1.00  0.00    -0.020 A 
ATOM      9  C   UNL     1      91.912 122.776 119.471  1.00  0.00    -0.011 A 
ATOM     10  C   UNL     1      92.787 122.756 117.161  1.00  0.00    -0.007 C 
ATOM     11  C   UNL     1      91.672 121.940 120.573  1.00  0.00     0.010 A 
ATOM     12  C   UNL     1      91.031 122.398 121.713  1.00  0.00     0.046 A 
ATOM     13  C   UNL     1      91.557 120.218 122.014  1.00  0.00     0.087 A 
ATOM     14  C   UNL     1      91.468 124.102 119.575  1.00  0.00     0.009 A 
ATOM     15  C   UNL     1      90.578 123.714 121.823  1.00  0.00     0.027 A 
ATOM     16  C   UNL     1      90.811 124.556 120.727  1.00  0.00     0.003 A 
ATOM     17  H   UNL     1      90.567 121.364 123.506  1.00  0.00     0.166 HD
ENDROOT
BRANCH   6  18
ATOM     18  C   UNL     1      94.576 123.313 115.483  1.00  0.00     0.230 C 
ATOM     19  O   UNL     1      94.972 123.266 114.315  1.00  0.00    -0.274 OA
ATOM     20  N   UNL     1      94.914 124.387 116.314  1.00  0.00    -0.343 N 
BRANCH  20  21
ATOM     21  C   UNL     1      95.772 125.431 115.743  1.00  0.00     0.116 C 
ATOM     22  C   UNL     1      95.022 126.415 114.857  1.00  0.00     0.027 C 
ENDBRANCH  20  21
BRANCH  20  23
ATOM     23  C   UNL     1      94.620 124.465 117.748  1.00  0.00     0.116 C 
ATOM     24  C   UNL     1      95.332 125.614 118.444  1.00  0.00     0.027 C 
ENDBRANCH  20  23
ENDBRANCH   6  18
BRANCH   1  25
ATOM     25  C   UNL     1      93.032 119.097 116.792  1.00  0.00     0.112 C 
BRANCH  25  26
ATOM     26  C   UNL     1      91.702 119.536 116.248  1.00  0.00    -0.019 C 
ATOM     27  C   UNL     1      90.515 119.137 116.728  1.00  0.00     0.005 C 
ENDBRANCH  25  26
ENDBRANCH   1  25
TORSDOF 5
ENDMDL
MODEL 19
REMARK VINA RESULT:    -6.481      3.455      6.727
REMARK INTER + INTRA:          -9.352
REMARK INTER:                  -8.729
REMARK INTRA:                  -0.623
REMARK UNBOUND:                -0.977
REMARK SMILES C=CCN1C[C@H](C(=O)N(CC)CC)C=C2c3cccc4[nH]cc(c34)C[C@H]21
REMARK SMILES IDX 4 1 21 2 26 3 15 4 25 5 6 6 5 7 23 8 16 9 14 10 24 11 20 12
REMARK SMILES IDX 22 13 17 14 19 15 18 16 7 18 8 19 9 20 10 21 11 22 12 23
REMARK SMILES IDX 13 24 3 25 2 26 1 27
REMARK H PARENT 21 17
ROOT
ATOM      1  N   UNL     1      91.185 123.604 121.345  1.00  0.00    -0.291 NA
ATOM      2  N   UNL     1      89.935 117.705 121.053  1.00  0.00    -0.361 N 
ATOM      3  C   UNL     1      90.713 122.232 121.670  1.00  0.00     0.092 C 
ATOM      4  C   UNL     1      89.204 122.157 122.055  1.00  0.00    -0.026 C 
ATOM      5  C   UNL     1      91.239 121.135 120.670  1.00  0.00     0.061 C 
ATOM      6  C   UNL     1      89.122 124.645 122.401  1.00  0.00     0.116 C 
ATOM      7  C   UNL     1      90.657 124.589 122.300  1.00  0.00     0.103 C 
ATOM      8  C   UNL     1      90.595 119.820 120.928  1.00  0.00    -0.020 A 
ATOM      9  C   UNL     1      88.593 120.807 122.160  1.00  0.00    -0.011 A 
ATOM     10  C   UNL     1      88.498 123.268 122.358  1.00  0.00    -0.007 C 
ATOM     11  C   UNL     1      89.359 119.768 121.609  1.00  0.00     0.010 A 
ATOM     12  C   UNL     1      88.951 118.445 121.672  1.00  0.00     0.046 A 
ATOM     13  C   UNL     1      90.938 118.530 120.594  1.00  0.00     0.087 A 
ATOM     14  C   UNL     1      87.388 120.445 122.778  1.00  0.00     0.009 A 
ATOM     15  C   UNL     1      87.749 118.075 122.278  1.00  0.00     0.027 A 
ATOM     16  C   UNL     1      86.976 119.106 122.830  1.00  0.00     0.003 A 
ATOM     17  H   UNL     1      89.915 116.700 120.947  1.00  0.00     0.166 HD
ENDROOT
BRANCH   6  18
ATOM     18  C   UNL     1      88.748 125.375 123.707  1.00  0.00     0.230 C 
ATOM     19  O   UNL     1      88.642 124.755 124.770  1.00  0.00    -0.274 OA
ATOM     20  N   UNL     1      88.571 126.763 123.665  1.00  0.00    -0.343 N 
BRANCH  20  21
ATOM     21  C   UNL     1      88.236 127.435 124.924  1.00  0.00     0.116 C 
ATOM     22  C   UNL     1      89.418 128.146 125.566  1.00  0.00     0.027 C 
ENDBRANCH  20  21
BRANCH  20  23
ATOM     23  C   UNL     1      88.529 127.568 122.439  1.00  0.00     0.116 C 
ATOM     24  C   UNL     1      87.127 127.713 121.867  1.00  0.00     0.027 C 
ENDBRANCH  20  23
ENDBRANCH   6  18
BRANCH   1  25
ATOM     25  C   UNL     1      91.180 124.028 119.947  1.00  0.00     0.112 C 
BRANCH  25  26
ATOM     26  C   UNL     1      92.457 123.918 119.163  1.00  0.00    -0.019 C 
ATOM     27  C   UNL     1      92.621 123.143 118.081  1.00  0.00     0.005 C 
ENDBRANCH  25  26
ENDBRANCH   1  25
TORSDOF 5
ENDMDL
MODEL 20
REMARK VINA RESULT:    -6.332      2.169      7.671
REMARK INTER + INTRA:          -9.160
REMARK INTER:                  -8.560
REMARK INTRA:                  -0.599
REMARK UNBOUND:                -0.977
REMARK SMILES C=CCN1C[C@H](C(=O)N(CC)CC)C=C2c3cccc4[nH]cc(c34)C[C@H]21
REMARK SMILES IDX 4 1 21 2 26 3 15 4 25 5 6 6 5 7 23 8 16 9 14 10 24 11 20 12
REMARK SMILES IDX 22 13 17 14 19 15 18 16 7 18 8 19 9 20 10 21 11 22 12 23
REMARK SMILES IDX 13 24 3 25 2 26 1 27
REMARK H PARENT 21 17
ROOT
ATOM      1  N   UNL     1      94.470 122.976 118.338  1.00  0.00    -0.291 NA
ATOM      2  N   UNL     1      95.639 121.675 112.559  1.00  0.00    -0.361 N 
ATOM      3  C   UNL     1      94.610 122.264 117.040  1.00  0.00     0.092 C 
ATOM      4  C   UNL     1      93.292 121.595 116.540  1.00  0.00    -0.026 C 
ATOM      5  C   UNL     1      95.440 123.068 115.970  1.00  0.00     0.061 C 
ATOM      6  C   UNL     1      92.261 121.817 118.822  1.00  0.00     0.116 C 
ATOM      7  C   UNL     1      93.679 122.189 119.294  1.00  0.00     0.103 C 
ATOM      8  C   UNL     1      95.394 122.400 114.642  1.00  0.00    -0.020 A 
ATOM      9  C   UNL     1      93.277 121.073 115.149  1.00  0.00    -0.011 A 
ATOM     10  C   UNL     1      92.233 121.427 117.360  1.00  0.00    -0.007 C 
ATOM     11  C   UNL     1      94.342 121.507 114.345  1.00  0.00     0.010 A 
ATOM     12  C   UNL     1      94.498 121.069 113.039  1.00  0.00     0.046 A 
ATOM     13  C   UNL     1      96.190 122.490 113.524  1.00  0.00     0.087 A 
ATOM     14  C   UNL     1      92.371 120.174 114.570  1.00  0.00     0.009 A 
ATOM     15  C   UNL     1      93.598 120.180 112.450  1.00  0.00     0.027 A 
ATOM     16  C   UNL     1      92.530 119.742 113.245  1.00  0.00     0.003 A 
ATOM     17  H   UNL     1      96.009 121.544 111.629  1.00  0.00     0.166 HD
ENDROOT
BRANCH   6  18
ATOM     18  C   UNL     1      91.741 120.666 119.706  1.00  0.00     0.230 C 
ATOM     19  O   UNL     1      92.056 119.495 119.469  1.00  0.00    -0.274 OA
ATOM     20  N   UNL     1      90.937 120.984 120.807  1.00  0.00    -0.343 N 
BRANCH  20  21
ATOM     21  C   UNL     1      90.473 119.872 121.642  1.00  0.00     0.116 C 
ATOM     22  C   UNL     1      89.983 120.309 123.015  1.00  0.00     0.027 C 
ENDBRANCH  20  21
BRANCH  20  23
ATOM     23  C   UNL     1      90.389 122.315 121.089  1.00  0.00     0.116 C 
ATOM     24  C   UNL     1      89.130 122.625 120.294  1.00  0.00     0.027 C 
ENDBRANCH  20  23
ENDBRANCH   6  18
BRANCH   1  25
ATOM     25  C   UNL     1      94.179 124.407 118.318  1.00  0.00     0.112 C 
BRANCH  25  26
ATOM     26  C   UNL     1      95.322 125.370 118.469  1.00  0.00    -0.019 C 
ATOM     27  C   UNL     1      95.694 126.261 117.538  1.00  0.00     0.005 C 
ENDBRANCH  25  26
ENDBRANCH   1  25
TORSDOF 5
ENDMDL
