MODEL 1
REMARK VINA RESULT:    -9.518      0.000      0.000
REMARK INTER + INTRA:         -13.223
REMARK INTER:                 -12.300
REMARK INTRA:                  -0.923
REMARK UNBOUND:                -0.923
REMARK SMILES C=CCN1C[C@H](C(=O)N(CC)CC)C=C2c3cccc4[nH]cc(c34)C[C@H]21
REMARK SMILES IDX 4 1 21 2 26 3 15 4 25 5 6 6 5 7 23 8 16 9 14 10 24 11 20 12
REMARK SMILES IDX 22 13 17 14 19 15 18 16 7 18 8 19 9 20 10 21 11 22 12 23
REMARK SMILES IDX 13 24 3 25 2 26 1 27
REMARK H PARENT 21 17
ROOT
ATOM      1  N   UNL     1     -28.202 -11.112 145.579  1.00  0.00    -0.291 NA
ATOM      2  N   UNL     1     -29.943  -7.196 141.325  1.00  0.00    -0.361 N 
ATOM      3  C   UNL     1     -28.230 -10.233 144.380  1.00  0.00     0.092 C 
ATOM      4  C   UNL     1     -27.907 -10.973 143.045  1.00  0.00    -0.026 C 
ATOM      5  C   UNL     1     -29.454  -9.243 144.357  1.00  0.00     0.061 C 
ATOM      6  C   UNL     1     -26.971 -12.934 144.307  1.00  0.00     0.116 C 
ATOM      7  C   UNL     1     -27.048 -12.022 145.545  1.00  0.00     0.103 C 
ATOM      8  C   UNL     1     -29.537  -8.520 143.059  1.00  0.00    -0.020 A 
ATOM      9  C   UNL     1     -28.147 -10.232 141.780  1.00  0.00    -0.011 A 
ATOM     10  C   UNL     1     -27.360 -12.207 143.039  1.00  0.00    -0.007 C 
ATOM     11  C   UNL     1     -28.917  -9.067 141.914  1.00  0.00     0.010 A 
ATOM     12  C   UNL     1     -29.185  -8.239 140.836  1.00  0.00     0.046 A 
ATOM     13  C   UNL     1     -30.166  -7.359 142.675  1.00  0.00     0.087 A 
ATOM     14  C   UNL     1     -27.661 -10.525 140.498  1.00  0.00     0.009 A 
ATOM     15  C   UNL     1     -28.713  -8.525 139.554  1.00  0.00     0.027 A 
ATOM     16  C   UNL     1     -27.945  -9.688 139.409  1.00  0.00     0.003 A 
ATOM     17  H   UNL     1     -30.290  -6.429 140.768  1.00  0.00     0.166 HD
ENDROOT
BRANCH   6  18
ATOM     18  C   UNL     1     -25.535 -13.488 144.202  1.00  0.00     0.230 C 
ATOM     19  O   UNL     1     -24.643 -12.832 143.655  1.00  0.00    -0.274 OA
ATOM     20  N   UNL     1     -25.260 -14.734 144.777  1.00  0.00    -0.343 N 
BRANCH  20  21
ATOM     21  C   UNL     1     -23.883 -15.228 144.680  1.00  0.00     0.116 C 
ATOM     22  C   UNL     1     -23.775 -16.744 144.753  1.00  0.00     0.027 C 
ENDBRANCH  20  21
BRANCH  20  23
ATOM     23  C   UNL     1     -26.269 -15.652 145.315  1.00  0.00     0.116 C 
ATOM     24  C   UNL     1     -26.423 -15.554 146.825  1.00  0.00     0.027 C 
ENDBRANCH  20  23
ENDBRANCH   6  18
BRANCH   1  25
ATOM     25  C   UNL     1     -29.455 -11.711 146.030  1.00  0.00     0.112 C 
BRANCH  25  26
ATOM     26  C   UNL     1     -29.400 -12.747 147.117  1.00  0.00    -0.019 C 
ATOM     27  C   UNL     1     -29.773 -14.027 146.967  1.00  0.00     0.005 C 
ENDBRANCH  25  26
ENDBRANCH   1  25
TORSDOF 5
ENDMDL
MODEL 2
REMARK VINA RESULT:    -9.231      4.023      6.263
REMARK INTER + INTRA:         -12.852
REMARK INTER:                 -12.123
REMARK INTRA:                  -0.729
REMARK UNBOUND:                -0.923
REMARK SMILES C=CCN1C[C@H](C(=O)N(CC)CC)C=C2c3cccc4[nH]cc(c34)C[C@H]21
REMARK SMILES IDX 4 1 21 2 26 3 15 4 25 5 6 6 5 7 23 8 16 9 14 10 24 11 20 12
REMARK SMILES IDX 22 13 17 14 19 15 18 16 7 18 8 19 9 20 10 21 11 22 12 23
REMARK SMILES IDX 13 24 3 25 2 26 1 27
REMARK H PARENT 21 17
ROOT
ATOM      1  N   UNL     1     -26.128 -13.964 145.095  1.00  0.00    -0.291 NA
ATOM      2  N   UNL     1     -31.073 -11.441 147.470  1.00  0.00    -0.361 N 
ATOM      3  C   UNL     1     -27.473 -13.760 145.696  1.00  0.00     0.092 C 
ATOM      4  C   UNL     1     -27.712 -14.579 147.002  1.00  0.00    -0.026 C 
ATOM      5  C   UNL     1     -27.928 -12.253 145.718  1.00  0.00     0.061 C 
ATOM      6  C   UNL     1     -25.730 -16.042 146.501  1.00  0.00     0.116 C 
ATOM      7  C   UNL     1     -25.748 -15.384 145.109  1.00  0.00     0.103 C 
ATOM      8  C   UNL     1     -29.188 -12.083 146.490  1.00  0.00    -0.020 A 
ATOM      9  C   UNL     1     -28.925 -14.257 147.797  1.00  0.00    -0.011 A 
ATOM     10  C   UNL     1     -26.894 -15.592 147.358  1.00  0.00    -0.007 C 
ATOM     11  C   UNL     1     -29.558 -13.054 147.447  1.00  0.00     0.010 A 
ATOM     12  C   UNL     1     -30.729 -12.638 148.059  1.00  0.00     0.046 A 
ATOM     13  C   UNL     1     -30.141 -11.092 146.516  1.00  0.00     0.087 A 
ATOM     14  C   UNL     1     -29.533 -15.022 148.802  1.00  0.00     0.009 A 
ATOM     15  C   UNL     1     -31.338 -13.388 149.067  1.00  0.00     0.027 A 
ATOM     16  C   UNL     1     -30.713 -14.591 149.425  1.00  0.00     0.003 A 
ATOM     17  H   UNL     1     -31.888 -10.896 147.711  1.00  0.00     0.166 HD
ENDROOT
BRANCH   6  18
ATOM     18  C   UNL     1     -25.748 -17.573 146.314  1.00  0.00     0.230 C 
ATOM     19  O   UNL     1     -26.781 -18.156 145.969  1.00  0.00    -0.274 OA
ATOM     20  N   UNL     1     -24.555 -18.279 146.506  1.00  0.00    -0.343 N 
BRANCH  20  21
ATOM     21  C   UNL     1     -24.595 -19.731 146.302  1.00  0.00     0.116 C 
ATOM     22  C   UNL     1     -23.250 -20.326 145.913  1.00  0.00     0.027 C 
ENDBRANCH  20  21
BRANCH  20  23
ATOM     23  C   UNL     1     -23.320 -17.709 147.054  1.00  0.00     0.116 C 
ATOM     24  C   UNL     1     -23.356 -17.545 148.566  1.00  0.00     0.027 C 
ENDBRANCH  20  23
ENDBRANCH   6  18
BRANCH   1  25
ATOM     25  C   UNL     1     -25.062 -13.030 145.444  1.00  0.00     0.112 C 
BRANCH  25  26
ATOM     26  C   UNL     1     -23.927 -12.847 144.477  1.00  0.00    -0.019 C 
ATOM     27  C   UNL     1     -22.755 -12.269 144.779  1.00  0.00     0.005 C 
ENDBRANCH  25  26
ENDBRANCH   1  25
TORSDOF 5
ENDMDL
MODEL 3
REMARK VINA RESULT:    -9.112      1.644      2.303
REMARK INTER + INTRA:         -12.698
REMARK INTER:                 -12.020
REMARK INTRA:                  -0.678
REMARK UNBOUND:                -0.923
REMARK SMILES C=CCN1C[C@H](C(=O)N(CC)CC)C=C2c3cccc4[nH]cc(c34)C[C@H]21
REMARK SMILES IDX 4 1 21 2 26 3 15 4 25 5 6 6 5 7 23 8 16 9 14 10 24 11 20 12
REMARK SMILES IDX 22 13 17 14 19 15 18 16 7 18 8 19 9 20 10 21 11 22 12 23
REMARK SMILES IDX 13 24 3 25 2 26 1 27
REMARK H PARENT 21 17
ROOT
ATOM      1  N   UNL     1     -27.243 -11.871 146.057  1.00  0.00    -0.291 NA
ATOM      2  N   UNL     1     -28.426  -9.532 140.618  1.00  0.00    -0.361 N 
ATOM      3  C   UNL     1     -27.162 -11.501 144.619  1.00  0.00     0.092 C 
ATOM      4  C   UNL     1     -27.034 -12.723 143.658  1.00  0.00    -0.026 C 
ATOM      5  C   UNL     1     -28.189 -10.383 144.201  1.00  0.00     0.061 C 
ATOM      6  C   UNL     1     -26.414 -14.224 145.576  1.00  0.00     0.116 C 
ATOM      7  C   UNL     1     -26.275 -12.925 146.391  1.00  0.00     0.103 C 
ATOM      8  C   UNL     1     -28.193 -10.181 142.727  1.00  0.00    -0.020 A 
ATOM      9  C   UNL     1     -27.188 -12.465 142.202  1.00  0.00    -0.011 A 
ATOM     10  C   UNL     1     -26.718 -13.952 144.119  1.00  0.00    -0.007 C 
ATOM     11  C   UNL     1     -27.729 -11.211 141.879  1.00  0.00     0.010 A 
ATOM     12  C   UNL     1     -27.889 -10.800 140.566  1.00  0.00     0.046 A 
ATOM     13  C   UNL     1     -28.619  -9.147 141.927  1.00  0.00     0.087 A 
ATOM     14  C   UNL     1     -26.817 -13.289 141.131  1.00  0.00     0.009 A 
ATOM     15  C   UNL     1     -27.530 -11.616 139.492  1.00  0.00     0.027 A 
ATOM     16  C   UNL     1     -26.990 -12.871 139.804  1.00  0.00     0.003 A 
ATOM     17  H   UNL     1     -28.653  -8.971 139.809  1.00  0.00     0.166 HD
ENDROOT
BRANCH   6  18
ATOM     18  C   UNL     1     -25.107 -15.030 145.721  1.00  0.00     0.230 C 
ATOM     19  O   UNL     1     -24.069 -14.656 145.165  1.00  0.00    -0.274 OA
ATOM     20  N   UNL     1     -25.117 -16.172 146.529  1.00  0.00    -0.343 N 
BRANCH  20  21
ATOM     21  C   UNL     1     -23.856 -16.908 146.666  1.00  0.00     0.116 C 
ATOM     22  C   UNL     1     -23.720 -17.636 147.996  1.00  0.00     0.027 C 
ENDBRANCH  20  21
BRANCH  20  23
ATOM     23  C   UNL     1     -26.319 -16.780 147.109  1.00  0.00     0.116 C 
ATOM     24  C   UNL     1     -27.171 -17.516 146.087  1.00  0.00     0.027 C 
ENDBRANCH  20  23
ENDBRANCH   6  18
BRANCH   1  25
ATOM     25  C   UNL     1     -28.564 -12.025 146.661  1.00  0.00     0.112 C 
BRANCH  25  26
ATOM     26  C   UNL     1     -28.901 -13.334 147.318  1.00  0.00    -0.019 C 
ATOM     27  C   UNL     1     -29.767 -14.231 146.826  1.00  0.00     0.005 C 
ENDBRANCH  25  26
ENDBRANCH   1  25
TORSDOF 5
ENDMDL
MODEL 4
REMARK VINA RESULT:    -9.008      4.682      7.183
REMARK INTER + INTRA:         -12.564
REMARK INTER:                 -11.673
REMARK INTRA:                  -0.891
REMARK UNBOUND:                -0.923
REMARK SMILES C=CCN1C[C@H](C(=O)N(CC)CC)C=C2c3cccc4[nH]cc(c34)C[C@H]21
REMARK SMILES IDX 4 1 21 2 26 3 15 4 25 5 6 6 5 7 23 8 16 9 14 10 24 11 20 12
REMARK SMILES IDX 22 13 17 14 19 15 18 16 7 18 8 19 9 20 10 21 11 22 12 23
REMARK SMILES IDX 13 24 3 25 2 26 1 27
REMARK H PARENT 21 17
ROOT
ATOM      1  N   UNL     1     -27.890 -13.664 146.113  1.00  0.00    -0.291 NA
ATOM      2  N   UNL     1     -32.637 -12.917 149.769  1.00  0.00    -0.361 N 
ATOM      3  C   UNL     1     -29.069 -13.916 146.984  1.00  0.00     0.092 C 
ATOM      4  C   UNL     1     -28.788 -14.905 148.158  1.00  0.00    -0.026 C 
ATOM      5  C   UNL     1     -29.874 -12.611 147.342  1.00  0.00     0.061 C 
ATOM      6  C   UNL     1     -26.668 -15.683 147.054  1.00  0.00     0.116 C 
ATOM      7  C   UNL     1     -27.169 -14.911 145.820  1.00  0.00     0.103 C 
ATOM      8  C   UNL     1     -30.925 -12.890 148.356  1.00  0.00    -0.020 A 
ATOM      9  C   UNL     1     -29.829 -15.027 149.211  1.00  0.00    -0.011 A 
ATOM     10  C   UNL     1     -27.680 -15.676 148.179  1.00  0.00    -0.007 C 
ATOM     11  C   UNL     1     -30.809 -14.023 149.192  1.00  0.00     0.010 A 
ATOM     12  C   UNL     1     -31.875 -14.024 150.076  1.00  0.00     0.046 A 
ATOM     13  C   UNL     1     -32.067 -12.218 148.727  1.00  0.00     0.087 A 
ATOM     14  C   UNL     1     -29.976 -16.037 150.172  1.00  0.00     0.009 A 
ATOM     15  C   UNL     1     -32.027 -15.020 151.042  1.00  0.00     0.027 A 
ATOM     16  C   UNL     1     -31.053 -16.027 151.070  1.00  0.00     0.003 A 
ATOM     17  H   UNL     1     -33.487 -12.655 150.248  1.00  0.00     0.166 HD
ENDROOT
BRANCH   6  18
ATOM     18  C   UNL     1     -26.338 -17.127 146.623  1.00  0.00     0.230 C 
ATOM     19  O   UNL     1     -27.145 -17.788 145.961  1.00  0.00    -0.274 OA
ATOM     20  N   UNL     1     -25.088 -17.653 146.965  1.00  0.00    -0.343 N 
BRANCH  20  21
ATOM     21  C   UNL     1     -24.792 -19.020 146.525  1.00  0.00     0.116 C 
ATOM     22  C   UNL     1     -23.312 -19.270 146.274  1.00  0.00     0.027 C 
ENDBRANCH  20  21
BRANCH  20  23
ATOM     23  C   UNL     1     -24.124 -17.011 147.865  1.00  0.00     0.116 C 
ATOM     24  C   UNL     1     -24.364 -17.340 149.331  1.00  0.00     0.027 C 
ENDBRANCH  20  23
ENDBRANCH   6  18
BRANCH   1  25
ATOM     25  C   UNL     1     -27.045 -12.509 146.404  1.00  0.00     0.112 C 
BRANCH  25  26
ATOM     26  C   UNL     1     -25.644 -12.496 145.863  1.00  0.00    -0.019 C 
ATOM     27  C   UNL     1     -24.538 -12.403 146.616  1.00  0.00     0.005 C 
ENDBRANCH  25  26
ENDBRANCH   1  25
TORSDOF 5
ENDMDL
MODEL 5
REMARK VINA RESULT:    -8.970      3.665      7.761
REMARK INTER + INTRA:         -12.515
REMARK INTER:                 -11.850
REMARK INTRA:                  -0.664
REMARK UNBOUND:                -0.923
REMARK SMILES C=CCN1C[C@H](C(=O)N(CC)CC)C=C2c3cccc4[nH]cc(c34)C[C@H]21
REMARK SMILES IDX 4 1 21 2 26 3 15 4 25 5 6 6 5 7 23 8 16 9 14 10 24 11 20 12
REMARK SMILES IDX 22 13 17 14 19 15 18 16 7 18 8 19 9 20 10 21 11 22 12 23
REMARK SMILES IDX 13 24 3 25 2 26 1 27
REMARK H PARENT 21 17
ROOT
ATOM      1  N   UNL     1     -27.644 -15.749 147.857  1.00  0.00    -0.291 NA
ATOM      2  N   UNL     1     -32.195 -15.240 151.793  1.00  0.00    -0.361 N 
ATOM      3  C   UNL     1     -28.667 -15.199 148.786  1.00  0.00     0.092 C 
ATOM      4  C   UNL     1     -29.591 -14.120 148.141  1.00  0.00    -0.026 C 
ATOM      5  C   UNL     1     -29.377 -16.301 149.659  1.00  0.00     0.061 C 
ATOM      6  C   UNL     1     -27.999 -13.842 146.216  1.00  0.00     0.116 C 
ATOM      7  C   UNL     1     -27.022 -14.683 147.059  1.00  0.00     0.103 C 
ATOM      8  C   UNL     1     -30.510 -15.726 150.432  1.00  0.00    -0.020 A 
ATOM      9  C   UNL     1     -30.786 -13.695 148.915  1.00  0.00    -0.011 A 
ATOM     10  C   UNL     1     -29.279 -13.538 146.964  1.00  0.00    -0.007 C 
ATOM     11  C   UNL     1     -31.114 -14.525 149.998  1.00  0.00     0.010 A 
ATOM     12  C   UNL     1     -32.170 -14.236 150.848  1.00  0.00     0.046 A 
ATOM     13  C   UNL     1     -31.193 -16.153 151.547  1.00  0.00     0.087 A 
ATOM     14  C   UNL     1     -31.580 -12.555 148.729  1.00  0.00     0.009 A 
ATOM     15  C   UNL     1     -32.972 -13.109 150.666  1.00  0.00     0.027 A 
ATOM     16  C   UNL     1     -32.653 -12.274 149.586  1.00  0.00     0.003 A 
ATOM     17  H   UNL     1     -32.860 -15.297 152.551  1.00  0.00     0.166 HD
ENDROOT
BRANCH   6  18
ATOM     18  C   UNL     1     -27.285 -12.539 145.801  1.00  0.00     0.230 C 
ATOM     19  O   UNL     1     -27.446 -11.497 146.445  1.00  0.00    -0.274 OA
ATOM     20  N   UNL     1     -26.419 -12.578 144.703  1.00  0.00    -0.343 N 
BRANCH  20  21
ATOM     21  C   UNL     1     -25.737 -11.330 144.343  1.00  0.00     0.116 C 
ATOM     22  C   UNL     1     -24.262 -11.316 144.716  1.00  0.00     0.027 C 
ENDBRANCH  20  21
BRANCH  20  23
ATOM     23  C   UNL     1     -26.270 -13.715 143.790  1.00  0.00     0.116 C 
ATOM     24  C   UNL     1     -26.469 -13.341 142.329  1.00  0.00     0.027 C 
ENDBRANCH  20  23
ENDBRANCH   6  18
BRANCH   1  25
ATOM     25  C   UNL     1     -27.956 -16.974 147.125  1.00  0.00     0.112 C 
BRANCH  25  26
ATOM     26  C   UNL     1     -26.967 -17.469 146.109  1.00  0.00    -0.019 C 
ATOM     27  C   UNL     1     -25.735 -17.912 146.398  1.00  0.00     0.005 C 
ENDBRANCH  25  26
ENDBRANCH   1  25
TORSDOF 5
ENDMDL
MODEL 6
REMARK VINA RESULT:    -8.903      4.136      7.990
REMARK INTER + INTRA:         -12.428
REMARK INTER:                 -11.621
REMARK INTRA:                  -0.807
REMARK UNBOUND:                -0.923
REMARK SMILES C=CCN1C[C@H](C(=O)N(CC)CC)C=C2c3cccc4[nH]cc(c34)C[C@H]21
REMARK SMILES IDX 4 1 21 2 26 3 15 4 25 5 6 6 5 7 23 8 16 9 14 10 24 11 20 12
REMARK SMILES IDX 22 13 17 14 19 15 18 16 7 18 8 19 9 20 10 21 11 22 12 23
REMARK SMILES IDX 13 24 3 25 2 26 1 27
REMARK H PARENT 21 17
ROOT
ATOM      1  N   UNL     1     -29.042 -13.922 146.777  1.00  0.00    -0.291 NA
ATOM      2  N   UNL     1     -33.012 -14.186 151.318  1.00  0.00    -0.361 N 
ATOM      3  C   UNL     1     -29.944 -14.415 147.851  1.00  0.00     0.092 C 
ATOM      4  C   UNL     1     -29.235 -15.318 148.906  1.00  0.00    -0.026 C 
ATOM      5  C   UNL     1     -30.915 -13.309 148.411  1.00  0.00     0.061 C 
ATOM      6  C   UNL     1     -27.264 -15.633 147.379  1.00  0.00     0.116 C 
ATOM      7  C   UNL     1     -28.151 -14.988 146.298  1.00  0.00     0.103 C 
ATOM      8  C   UNL     1     -31.661 -13.801 149.600  1.00  0.00    -0.020 A 
ATOM      9  C   UNL     1     -29.996 -15.655 150.137  1.00  0.00    -0.011 A 
ATOM     10  C   UNL     1     -28.010 -15.838 148.679  1.00  0.00    -0.007 C 
ATOM     11  C   UNL     1     -31.147 -14.881 150.350  1.00  0.00     0.010 A 
ATOM     12  C   UNL     1     -31.991 -15.106 151.426  1.00  0.00     0.046 A 
ATOM     13  C   UNL     1     -32.820 -13.385 150.214  1.00  0.00     0.087 A 
ATOM     14  C   UNL     1     -29.735 -16.671 151.068  1.00  0.00     0.009 A 
ATOM     15  C   UNL     1     -31.737 -16.109 152.362  1.00  0.00     0.027 A 
ATOM     16  C   UNL     1     -30.589 -16.887 152.159  1.00  0.00     0.003 A 
ATOM     17  H   UNL     1     -33.785 -14.109 151.964  1.00  0.00     0.166 HD
ENDROOT
BRANCH   6  18
ATOM     18  C   UNL     1     -26.734 -16.976 146.835  1.00  0.00     0.230 C 
ATOM     19  O   UNL     1     -27.457 -17.711 146.154  1.00  0.00    -0.274 OA
ATOM     20  N   UNL     1     -25.403 -17.320 147.096  1.00  0.00    -0.343 N 
BRANCH  20  21
ATOM     21  C   UNL     1     -24.920 -18.591 146.550  1.00  0.00     0.116 C 
ATOM     22  C   UNL     1     -23.402 -18.695 146.505  1.00  0.00     0.027 C 
ENDBRANCH  20  21
BRANCH  20  23
ATOM     23  C   UNL     1     -24.512 -16.595 148.008  1.00  0.00     0.116 C 
ATOM     24  C   UNL     1     -24.595 -17.088 149.445  1.00  0.00     0.027 C 
ENDBRANCH  20  23
ENDBRANCH   6  18
BRANCH   1  25
ATOM     25  C   UNL     1     -28.415 -12.613 146.942  1.00  0.00     0.112 C 
BRANCH  25  26
ATOM     26  C   UNL     1     -28.670 -11.562 145.899  1.00  0.00    -0.019 C 
ATOM     27  C   UNL     1     -29.762 -10.785 145.854  1.00  0.00     0.005 C 
ENDBRANCH  25  26
ENDBRANCH   1  25
TORSDOF 5
ENDMDL
MODEL 7
REMARK VINA RESULT:    -8.774      3.018      7.449
REMARK INTER + INTRA:         -12.261
REMARK INTER:                 -11.619
REMARK INTRA:                  -0.643
REMARK UNBOUND:                -0.923
REMARK SMILES C=CCN1C[C@H](C(=O)N(CC)CC)C=C2c3cccc4[nH]cc(c34)C[C@H]21
REMARK SMILES IDX 4 1 21 2 26 3 15 4 25 5 6 6 5 7 23 8 16 9 14 10 24 11 20 12
REMARK SMILES IDX 22 13 17 14 19 15 18 16 7 18 8 19 9 20 10 21 11 22 12 23
REMARK SMILES IDX 13 24 3 25 2 26 1 27
REMARK H PARENT 21 17
ROOT
ATOM      1  N   UNL     1     -28.635 -12.029 146.623  1.00  0.00    -0.291 NA
ATOM      2  N   UNL     1     -23.726 -14.765 144.415  1.00  0.00    -0.361 N 
ATOM      3  C   UNL     1     -27.454 -12.918 146.458  1.00  0.00     0.092 C 
ATOM      4  C   UNL     1     -27.780 -14.436 146.611  1.00  0.00    -0.026 C 
ATOM      5  C   UNL     1     -26.530 -12.516 145.249  1.00  0.00     0.061 C 
ATOM      6  C   UNL     1     -29.993 -13.900 147.676  1.00  0.00     0.116 C 
ATOM      7  C   UNL     1     -29.468 -12.455 147.756  1.00  0.00     0.103 C 
ATOM      8  C   UNL     1     -25.474 -13.537 145.017  1.00  0.00    -0.020 A 
ATOM      9  C   UNL     1     -26.720 -15.403 146.227  1.00  0.00    -0.011 A 
ATOM     10  C   UNL     1     -28.948 -14.856 147.142  1.00  0.00    -0.007 C 
ATOM     11  C   UNL     1     -25.659 -14.855 145.489  1.00  0.00     0.010 A 
ATOM     12  C   UNL     1     -24.569 -15.615 145.099  1.00  0.00     0.046 A 
ATOM     13  C   UNL     1     -24.268 -13.500 144.356  1.00  0.00     0.087 A 
ATOM     14  C   UNL     1     -26.628 -16.764 146.551  1.00  0.00     0.009 A 
ATOM     15  C   UNL     1     -24.471 -16.972 145.410  1.00  0.00     0.027 A 
ATOM     16  C   UNL     1     -25.525 -17.530 146.146  1.00  0.00     0.003 A 
ATOM     17  H   UNL     1     -22.842 -15.038 144.010  1.00  0.00     0.166 HD
ENDROOT
BRANCH   6  18
ATOM     18  C   UNL     1     -30.458 -14.327 149.083  1.00  0.00     0.230 C 
ATOM     19  O   UNL     1     -29.780 -15.103 149.764  1.00  0.00    -0.274 OA
ATOM     20  N   UNL     1     -31.645 -13.781 149.584  1.00  0.00    -0.343 N 
BRANCH  20  21
ATOM     21  C   UNL     1     -32.053 -14.188 150.933  1.00  0.00     0.116 C 
ATOM     22  C   UNL     1     -33.402 -14.891 150.972  1.00  0.00     0.027 C 
ENDBRANCH  20  21
BRANCH  20  23
ATOM     23  C   UNL     1     -32.591 -12.974 148.808  1.00  0.00     0.116 C 
ATOM     24  C   UNL     1     -32.752 -11.559 149.345  1.00  0.00     0.027 C 
ENDBRANCH  20  23
ENDBRANCH   6  18
BRANCH   1  25
ATOM     25  C   UNL     1     -29.369 -11.620 145.429  1.00  0.00     0.112 C 
BRANCH  25  26
ATOM     26  C   UNL     1     -29.360 -10.167 145.047  1.00  0.00    -0.019 C 
ATOM     27  C   UNL     1     -28.661  -9.653 144.025  1.00  0.00     0.005 C 
ENDBRANCH  25  26
ENDBRANCH   1  25
TORSDOF 5
ENDMDL
MODEL 8
REMARK VINA RESULT:    -8.717      3.580      9.127
REMARK INTER + INTRA:         -12.188
REMARK INTER:                 -11.568
REMARK INTRA:                  -0.620
REMARK UNBOUND:                -0.923
REMARK SMILES C=CCN1C[C@H](C(=O)N(CC)CC)C=C2c3cccc4[nH]cc(c34)C[C@H]21
REMARK SMILES IDX 4 1 21 2 26 3 15 4 25 5 6 6 5 7 23 8 16 9 14 10 24 11 20 12
REMARK SMILES IDX 22 13 17 14 19 15 18 16 7 18 8 19 9 20 10 21 11 22 12 23
REMARK SMILES IDX 13 24 3 25 2 26 1 27
REMARK H PARENT 21 17
ROOT
ATOM      1  N   UNL     1     -24.491 -15.941 147.703  1.00  0.00    -0.291 NA
ATOM      2  N   UNL     1     -27.629 -18.458 152.206  1.00  0.00    -0.361 N 
ATOM      3  C   UNL     1     -25.470 -16.176 148.798  1.00  0.00     0.092 C 
ATOM      4  C   UNL     1     -26.955 -15.964 148.373  1.00  0.00    -0.026 C 
ATOM      5  C   UNL     1     -25.159 -17.462 149.651  1.00  0.00     0.061 C 
ATOM      6  C   UNL     1     -26.235 -14.744 146.297  1.00  0.00     0.116 C 
ATOM      7  C   UNL     1     -24.833 -14.737 146.932  1.00  0.00     0.103 C 
ATOM      8  C   UNL     1     -26.261 -17.752 150.607  1.00  0.00    -0.020 A 
ATOM      9  C   UNL     1     -28.007 -16.407 149.325  1.00  0.00    -0.011 A 
ATOM     10  C   UNL     1     -27.276 -15.334 147.223  1.00  0.00    -0.007 C 
ATOM     11  C   UNL     1     -27.553 -17.236 150.362  1.00  0.00     0.010 A 
ATOM     12  C   UNL     1     -28.400 -17.692 151.359  1.00  0.00     0.046 A 
ATOM     13  C   UNL     1     -26.327 -18.505 151.756  1.00  0.00     0.087 A 
ATOM     14  C   UNL     1     -29.365 -16.059 149.341  1.00  0.00     0.009 A 
ATOM     15  C   UNL     1     -29.756 -17.358 151.380  1.00  0.00     0.027 A 
ATOM     16  C   UNL     1     -30.219 -16.531 150.348  1.00  0.00     0.003 A 
ATOM     17  H   UNL     1     -27.975 -18.924 153.033  1.00  0.00     0.166 HD
ENDROOT
BRANCH   6  18
ATOM     18  C   UNL     1     -26.601 -13.295 145.914  1.00  0.00     0.230 C 
ATOM     19  O   UNL     1     -27.136 -12.541 146.733  1.00  0.00    -0.274 OA
ATOM     20  N   UNL     1     -26.276 -12.845 144.630  1.00  0.00    -0.343 N 
BRANCH  20  21
ATOM     21  C   UNL     1     -26.617 -11.458 144.299  1.00  0.00     0.116 C 
ATOM     22  C   UNL     1     -25.423 -10.515 144.336  1.00  0.00     0.027 C 
ENDBRANCH  20  21
BRANCH  20  23
ATOM     23  C   UNL     1     -25.779 -13.695 143.543  1.00  0.00     0.116 C 
ATOM     24  C   UNL     1     -26.448 -13.412 142.207  1.00  0.00     0.027 C 
ENDBRANCH  20  23
ENDBRANCH   6  18
BRANCH   1  25
ATOM     25  C   UNL     1     -24.048 -17.084 146.910  1.00  0.00     0.112 C 
BRANCH  25  26
ATOM     26  C   UNL     1     -25.076 -18.081 146.457  1.00  0.00    -0.019 C 
ATOM     27  C   UNL     1     -24.831 -19.381 146.238  1.00  0.00     0.005 C 
ENDBRANCH  25  26
ENDBRANCH   1  25
TORSDOF 5
ENDMDL
MODEL 9
REMARK VINA RESULT:    -8.711      3.472      8.009
REMARK INTER + INTRA:         -12.180
REMARK INTER:                 -11.440
REMARK INTRA:                  -0.740
REMARK UNBOUND:                -0.923
REMARK SMILES C=CCN1C[C@H](C(=O)N(CC)CC)C=C2c3cccc4[nH]cc(c34)C[C@H]21
REMARK SMILES IDX 4 1 21 2 26 3 15 4 25 5 6 6 5 7 23 8 16 9 14 10 24 11 20 12
REMARK SMILES IDX 22 13 17 14 19 15 18 16 7 18 8 19 9 20 10 21 11 22 12 23
REMARK SMILES IDX 13 24 3 25 2 26 1 27
REMARK H PARENT 21 17
ROOT
ATOM      1  N   UNL     1     -26.748 -15.932 147.300  1.00  0.00    -0.291 NA
ATOM      2  N   UNL     1     -30.925 -16.407 151.634  1.00  0.00    -0.361 N 
ATOM      3  C   UNL     1     -27.748 -15.613 148.354  1.00  0.00     0.092 C 
ATOM      4  C   UNL     1     -28.880 -14.650 147.880  1.00  0.00    -0.026 C 
ATOM      5  C   UNL     1     -28.198 -16.868 149.191  1.00  0.00     0.061 C 
ATOM      6  C   UNL     1     -27.539 -13.997 145.857  1.00  0.00     0.116 C 
ATOM      7  C   UNL     1     -26.372 -14.730 146.542  1.00  0.00     0.103 C 
ATOM      8  C   UNL     1     -29.326 -16.531 150.100  1.00  0.00    -0.020 A 
ATOM      9  C   UNL     1     -30.045 -14.470 148.784  1.00  0.00    -0.011 A 
ATOM     10  C   UNL     1     -28.773 -13.947 146.732  1.00  0.00    -0.007 C 
ATOM     11  C   UNL     1     -30.140 -15.412 149.819  1.00  0.00     0.010 A 
ATOM     12  C   UNL     1     -31.141 -15.351 150.776  1.00  0.00     0.046 A 
ATOM     13  C   UNL     1     -29.826 -17.135 151.231  1.00  0.00     0.087 A 
ATOM     14  C   UNL     1     -31.015 -13.458 148.759  1.00  0.00     0.009 A 
ATOM     15  C   UNL     1     -32.116 -14.352 150.755  1.00  0.00     0.027 A 
ATOM     16  C   UNL     1     -32.031 -13.407 149.724  1.00  0.00     0.003 A 
ATOM     17  H   UNL     1     -31.498 -16.619 152.438  1.00  0.00     0.166 HD
ENDROOT
BRANCH   6  18
ATOM     18  C   UNL     1     -27.071 -12.573 145.491  1.00  0.00     0.230 C 
ATOM     19  O   UNL     1     -27.331 -11.614 146.224  1.00  0.00    -0.274 OA
ATOM     20  N   UNL     1     -26.309 -12.403 144.329  1.00  0.00    -0.343 N 
BRANCH  20  21
ATOM     21  C   UNL     1     -25.859 -11.043 144.016  1.00  0.00     0.116 C 
ATOM     22  C   UNL     1     -24.406 -10.784 144.386  1.00  0.00     0.027 C 
ENDBRANCH  20  21
BRANCH  20  23
ATOM     23  C   UNL     1     -26.071 -13.441 143.321  1.00  0.00     0.116 C 
ATOM     24  C   UNL     1     -26.721 -13.135 141.981  1.00  0.00     0.027 C 
ENDBRANCH  20  23
ENDBRANCH   6  18
BRANCH   1  25
ATOM     25  C   UNL     1     -26.942 -17.138 146.500  1.00  0.00     0.112 C 
BRANCH  25  26
ATOM     26  C   UNL     1     -25.758 -18.028 146.252  1.00  0.00    -0.019 C 
ATOM     27  C   UNL     1     -24.620 -17.996 146.961  1.00  0.00     0.005 C 
ENDBRANCH  25  26
ENDBRANCH   1  25
TORSDOF 5
ENDMDL
MODEL 10
REMARK VINA RESULT:    -8.688      2.516      8.354
REMARK INTER + INTRA:         -12.150
REMARK INTER:                 -11.436
REMARK INTRA:                  -0.714
REMARK UNBOUND:                -0.923
REMARK SMILES C=CCN1C[C@H](C(=O)N(CC)CC)C=C2c3cccc4[nH]cc(c34)C[C@H]21
REMARK SMILES IDX 4 1 21 2 26 3 15 4 25 5 6 6 5 7 23 8 16 9 14 10 24 11 20 12
REMARK SMILES IDX 22 13 17 14 19 15 18 16 7 18 8 19 9 20 10 21 11 22 12 23
REMARK SMILES IDX 13 24 3 25 2 26 1 27
REMARK H PARENT 21 17
ROOT
ATOM      1  N   UNL     1     -25.484 -13.009 145.768  1.00  0.00    -0.291 NA
ATOM      2  N   UNL     1     -25.819 -17.523 149.763  1.00  0.00    -0.361 N 
ATOM      3  C   UNL     1     -25.878 -13.864 146.919  1.00  0.00     0.092 C 
ATOM      4  C   UNL     1     -27.400 -14.203 146.963  1.00  0.00    -0.026 C 
ATOM      5  C   UNL     1     -24.884 -15.056 147.184  1.00  0.00     0.061 C 
ATOM      6  C   UNL     1     -27.901 -12.372 145.315  1.00  0.00     0.116 C 
ATOM      7  C   UNL     1     -26.449 -11.921 145.557  1.00  0.00     0.103 C 
ATOM      8  C   UNL     1     -25.417 -15.980 148.220  1.00  0.00    -0.020 A 
ATOM      9  C   UNL     1     -27.840 -15.240 147.931  1.00  0.00    -0.011 A 
ATOM     10  C   UNL     1     -28.293 -13.530 146.208  1.00  0.00    -0.007 C 
ATOM     11  C   UNL     1     -26.804 -16.010 148.483  1.00  0.00     0.010 A 
ATOM     12  C   UNL     1     -27.045 -16.983 149.439  1.00  0.00     0.046 A 
ATOM     13  C   UNL     1     -24.822 -16.923 149.025  1.00  0.00     0.087 A 
ATOM     14  C   UNL     1     -29.138 -15.503 148.391  1.00  0.00     0.009 A 
ATOM     15  C   UNL     1     -28.334 -17.258 149.898  1.00  0.00     0.027 A 
ATOM     16  C   UNL     1     -29.376 -16.496 149.353  1.00  0.00     0.003 A 
ATOM     17  H   UNL     1     -25.678 -18.259 150.440  1.00  0.00     0.166 HD
ENDROOT
BRANCH   6  18
ATOM     18  C   UNL     1     -28.830 -11.163 145.547  1.00  0.00     0.230 C 
ATOM     19  O   UNL     1     -29.204 -10.862 146.685  1.00  0.00    -0.274 OA
ATOM     20  N   UNL     1     -29.205 -10.392 144.441  1.00  0.00    -0.343 N 
BRANCH  20  21
ATOM     21  C   UNL     1     -30.072  -9.236 144.693  1.00  0.00     0.116 C 
ATOM     22  C   UNL     1     -30.660  -8.632 143.426  1.00  0.00     0.027 C 
ENDBRANCH  20  21
BRANCH  20  23
ATOM     23  C   UNL     1     -28.939 -10.744 143.043  1.00  0.00     0.116 C 
ATOM     24  C   UNL     1     -27.606 -10.216 142.535  1.00  0.00     0.027 C 
ENDBRANCH  20  23
ENDBRANCH   6  18
BRANCH   1  25
ATOM     25  C   UNL     1     -25.004 -13.659 144.551  1.00  0.00     0.112 C 
BRANCH  25  26
ATOM     26  C   UNL     1     -23.577 -13.435 144.137  1.00  0.00    -0.019 C 
ATOM     27  C   UNL     1     -22.797 -12.447 144.599  1.00  0.00     0.005 C 
ENDBRANCH  25  26
ENDBRANCH   1  25
TORSDOF 5
ENDMDL
MODEL 11
REMARK VINA RESULT:    -8.682      2.547      5.118
REMARK INTER + INTRA:         -12.142
REMARK INTER:                 -11.506
REMARK INTRA:                  -0.636
REMARK UNBOUND:                -0.923
REMARK SMILES C=CCN1C[C@H](C(=O)N(CC)CC)C=C2c3cccc4[nH]cc(c34)C[C@H]21
REMARK SMILES IDX 4 1 21 2 26 3 15 4 25 5 6 6 5 7 23 8 16 9 14 10 24 11 20 12
REMARK SMILES IDX 22 13 17 14 19 15 18 16 7 18 8 19 9 20 10 21 11 22 12 23
REMARK SMILES IDX 13 24 3 25 2 26 1 27
REMARK H PARENT 21 17
ROOT
ATOM      1  N   UNL     1     -25.118 -14.830 144.629  1.00  0.00    -0.291 NA
ATOM      2  N   UNL     1     -28.584 -10.384 142.467  1.00  0.00    -0.361 N 
ATOM      3  C   UNL     1     -26.266 -13.925 144.358  1.00  0.00     0.092 C 
ATOM      4  C   UNL     1     -26.882 -13.283 145.639  1.00  0.00    -0.026 C 
ATOM      5  C   UNL     1     -26.031 -12.963 143.133  1.00  0.00     0.061 C 
ATOM      6  C   UNL     1     -25.703 -14.956 147.098  1.00  0.00     0.116 C 
ATOM      7  C   UNL     1     -25.385 -15.696 145.786  1.00  0.00     0.103 C 
ATOM      8  C   UNL     1     -27.123 -11.961 143.019  1.00  0.00    -0.020 A 
ATOM      9  C   UNL     1     -27.867 -12.188 145.448  1.00  0.00    -0.011 A 
ATOM     10  C   UNL     1     -26.591 -13.752 146.871  1.00  0.00    -0.007 C 
ATOM     11  C   UNL     1     -27.909 -11.651 144.152  1.00  0.00     0.010 A 
ATOM     12  C   UNL     1     -28.810 -10.659 143.799  1.00  0.00     0.046 A 
ATOM     13  C   UNL     1     -27.559 -11.167 141.984  1.00  0.00     0.087 A 
ATOM     14  C   UNL     1     -28.782 -11.671 146.376  1.00  0.00     0.009 A 
ATOM     15  C   UNL     1     -29.719 -10.132 144.718  1.00  0.00     0.027 A 
ATOM     16  C   UNL     1     -29.684 -10.661 146.015  1.00  0.00     0.003 A 
ATOM     17  H   UNL     1     -29.096  -9.700 141.929  1.00  0.00     0.166 HD
ENDROOT
BRANCH   6  18
ATOM     18  C   UNL     1     -26.369 -15.953 148.069  1.00  0.00     0.230 C 
ATOM     19  O   UNL     1     -27.594 -16.104 148.077  1.00  0.00    -0.274 OA
ATOM     20  N   UNL     1     -25.546 -16.711 148.910  1.00  0.00    -0.343 N 
BRANCH  20  21
ATOM     21  C   UNL     1     -26.204 -17.665 149.808  1.00  0.00     0.116 C 
ATOM     22  C   UNL     1     -25.522 -17.793 151.162  1.00  0.00     0.027 C 
ENDBRANCH  20  21
BRANCH  20  23
ATOM     23  C   UNL     1     -24.105 -16.506 149.083  1.00  0.00     0.116 C 
ATOM     24  C   UNL     1     -23.261 -17.516 148.321  1.00  0.00     0.027 C 
ENDBRANCH  20  23
ENDBRANCH   6  18
BRANCH   1  25
ATOM     25  C   UNL     1     -23.767 -14.279 144.562  1.00  0.00     0.112 C 
BRANCH  25  26
ATOM     26  C   UNL     1     -23.507 -12.946 145.204  1.00  0.00    -0.019 C 
ATOM     27  C   UNL     1     -22.696 -12.004 144.701  1.00  0.00     0.005 C 
ENDBRANCH  25  26
ENDBRANCH   1  25
TORSDOF 5
ENDMDL
MODEL 12
REMARK VINA RESULT:    -8.373      2.175      4.414
REMARK INTER + INTRA:         -11.743
REMARK INTER:                 -11.074
REMARK INTRA:                  -0.670
REMARK UNBOUND:                -0.923
REMARK SMILES C=CCN1C[C@H](C(=O)N(CC)CC)C=C2c3cccc4[nH]cc(c34)C[C@H]21
REMARK SMILES IDX 4 1 21 2 26 3 15 4 25 5 6 6 5 7 23 8 16 9 14 10 24 11 20 12
REMARK SMILES IDX 22 13 17 14 19 15 18 16 7 18 8 19 9 20 10 21 11 22 12 23
REMARK SMILES IDX 13 24 3 25 2 26 1 27
REMARK H PARENT 21 17
ROOT
ATOM      1  N   UNL     1     -25.652 -14.268 143.930  1.00  0.00    -0.291 NA
ATOM      2  N   UNL     1     -28.933  -9.769 141.595  1.00  0.00    -0.361 N 
ATOM      3  C   UNL     1     -26.755 -13.315 143.638  1.00  0.00     0.092 C 
ATOM      4  C   UNL     1     -27.285 -12.557 144.894  1.00  0.00    -0.026 C 
ATOM      5  C   UNL     1     -26.510 -12.449 142.346  1.00  0.00     0.061 C 
ATOM      6  C   UNL     1     -26.153 -14.201 146.420  1.00  0.00     0.116 C 
ATOM      7  C   UNL     1     -25.926 -15.041 145.150  1.00  0.00     0.103 C 
ATOM      8  C   UNL     1     -27.546 -11.392 142.202  1.00  0.00    -0.020 A 
ATOM      9  C   UNL     1     -28.213 -11.419 144.663  1.00  0.00    -0.011 A 
ATOM     10  C   UNL     1     -26.977 -12.963 146.144  1.00  0.00    -0.007 C 
ATOM     11  C   UNL     1     -28.271 -10.964 143.336  1.00  0.00     0.010 A 
ATOM     12  C   UNL     1     -29.125  -9.945 142.949  1.00  0.00     0.046 A 
ATOM     13  C   UNL     1     -27.972 -10.641 141.131  1.00  0.00     0.087 A 
ATOM     14  C   UNL     1     -29.061 -10.790 145.585  1.00  0.00     0.009 A 
ATOM     15  C   UNL     1     -29.968  -9.306 143.860  1.00  0.00     0.027 A 
ATOM     16  C   UNL     1     -29.916  -9.752 145.188  1.00  0.00     0.003 A 
ATOM     17  H   UNL     1     -29.423  -9.091 141.030  1.00  0.00     0.166 HD
ENDROOT
BRANCH   6  18
ATOM     18  C   UNL     1     -26.839 -15.092 147.475  1.00  0.00     0.230 C 
ATOM     19  O   UNL     1     -28.058 -15.025 147.663  1.00  0.00    -0.274 OA
ATOM     20  N   UNL     1     -26.053 -16.006 148.186  1.00  0.00    -0.343 N 
BRANCH  20  21
ATOM     21  C   UNL     1     -26.735 -16.855 149.168  1.00  0.00     0.116 C 
ATOM     22  C   UNL     1     -25.882 -17.177 150.387  1.00  0.00     0.027 C 
ENDBRANCH  20  21
BRANCH  20  23
ATOM     23  C   UNL     1     -24.588 -16.064 148.145  1.00  0.00     0.116 C 
ATOM     24  C   UNL     1     -24.057 -17.237 147.336  1.00  0.00     0.027 C 
ENDBRANCH  20  23
ENDBRANCH   6  18
BRANCH   1  25
ATOM     25  C   UNL     1     -24.275 -13.804 143.783  1.00  0.00     0.112 C 
BRANCH  25  26
ATOM     26  C   UNL     1     -23.722 -12.868 144.819  1.00  0.00    -0.019 C 
ATOM     27  C   UNL     1     -23.686 -11.533 144.696  1.00  0.00     0.005 C 
ENDBRANCH  25  26
ENDBRANCH   1  25
TORSDOF 5
ENDMDL
MODEL 13
REMARK VINA RESULT:    -8.320      4.409      7.070
REMARK INTER + INTRA:         -11.675
REMARK INTER:                 -10.961
REMARK INTRA:                  -0.714
REMARK UNBOUND:                -0.923
REMARK SMILES C=CCN1C[C@H](C(=O)N(CC)CC)C=C2c3cccc4[nH]cc(c34)C[C@H]21
REMARK SMILES IDX 4 1 21 2 26 3 15 4 25 5 6 6 5 7 23 8 16 9 14 10 24 11 20 12
REMARK SMILES IDX 22 13 17 14 19 15 18 16 7 18 8 19 9 20 10 21 11 22 12 23
REMARK SMILES IDX 13 24 3 25 2 26 1 27
REMARK H PARENT 21 17
ROOT
ATOM      1  N   UNL     1     -28.791 -15.478 147.156  1.00  0.00    -0.291 NA
ATOM      2  N   UNL     1     -23.764 -14.162 144.082  1.00  0.00    -0.361 N 
ATOM      3  C   UNL     1     -27.797 -14.815 146.270  1.00  0.00     0.092 C 
ATOM      4  C   UNL     1     -27.528 -13.321 146.628  1.00  0.00    -0.026 C 
ATOM      5  C   UNL     1     -26.533 -15.705 145.971  1.00  0.00     0.061 C 
ATOM      6  C   UNL     1     -29.602 -13.241 148.047  1.00  0.00     0.116 C 
ATOM      7  C   UNL     1     -29.943 -14.602 147.413  1.00  0.00     0.103 C 
ATOM      8  C   UNL     1     -25.494 -14.933 145.238  1.00  0.00    -0.020 A 
ATOM      9  C   UNL     1     -26.383 -12.654 145.956  1.00  0.00    -0.011 A 
ATOM     10  C   UNL     1     -28.347 -12.637 147.456  1.00  0.00    -0.007 C 
ATOM     11  C   UNL     1     -25.493 -13.522 145.307  1.00  0.00     0.010 A 
ATOM     12  C   UNL     1     -24.403 -13.052 144.591  1.00  0.00     0.046 A 
ATOM     13  C   UNL     1     -24.416 -15.311 144.472  1.00  0.00     0.087 A 
ATOM     14  C   UNL     1     -26.119 -11.281 145.851  1.00  0.00     0.009 A 
ATOM     15  C   UNL     1     -24.126 -11.688 144.487  1.00  0.00     0.027 A 
ATOM     16  C   UNL     1     -25.009 -10.812 145.133  1.00  0.00     0.003 A 
ATOM     17  H   UNL     1     -22.931 -14.132 143.511  1.00  0.00     0.166 HD
ENDROOT
BRANCH   6  18
ATOM     18  C   UNL     1     -30.807 -12.299 147.851  1.00  0.00     0.230 C 
ATOM     19  O   UNL     1     -30.832 -11.489 146.919  1.00  0.00    -0.274 OA
ATOM     20  N   UNL     1     -31.889 -12.413 148.732  1.00  0.00    -0.343 N 
BRANCH  20  21
ATOM     21  C   UNL     1     -33.030 -11.519 148.511  1.00  0.00     0.116 C 
ATOM     22  C   UNL     1     -33.391 -10.683 149.731  1.00  0.00     0.027 C 
ENDBRANCH  20  21
BRANCH  20  23
ATOM     23  C   UNL     1     -31.898 -13.231 149.949  1.00  0.00     0.116 C 
ATOM     24  C   UNL     1     -33.090 -14.173 150.029  1.00  0.00     0.027 C 
ENDBRANCH  20  23
ENDBRANCH   6  18
BRANCH   1  25
ATOM     25  C   UNL     1     -28.302 -16.220 148.315  1.00  0.00     0.112 C 
BRANCH  25  26
ATOM     26  C   UNL     1     -29.303 -16.934 149.179  1.00  0.00    -0.019 C 
ATOM     27  C   UNL     1     -29.758 -16.475 150.354  1.00  0.00     0.005 C 
ENDBRANCH  25  26
ENDBRANCH   1  25
TORSDOF 5
ENDMDL
MODEL 14
REMARK VINA RESULT:    -8.058      6.128      9.665
REMARK INTER + INTRA:         -11.336
REMARK INTER:                 -10.866
REMARK INTRA:                  -0.470
REMARK UNBOUND:                -0.923
REMARK SMILES C=CCN1C[C@H](C(=O)N(CC)CC)C=C2c3cccc4[nH]cc(c34)C[C@H]21
REMARK SMILES IDX 4 1 21 2 26 3 15 4 25 5 6 6 5 7 23 8 16 9 14 10 24 11 20 12
REMARK SMILES IDX 22 13 17 14 19 15 18 16 7 18 8 19 9 20 10 21 11 22 12 23
REMARK SMILES IDX 13 24 3 25 2 26 1 27
REMARK H PARENT 21 17
ROOT
ATOM      1  N   UNL     1     -29.622 -15.340 148.369  1.00  0.00    -0.291 NA
ATOM      2  N   UNL     1     -30.628 -17.993 153.698  1.00  0.00    -0.361 N 
ATOM      3  C   UNL     1     -29.649 -16.318 149.489  1.00  0.00     0.092 C 
ATOM      4  C   UNL     1     -28.238 -16.825 149.919  1.00  0.00    -0.026 C 
ATOM      5  C   UNL     1     -30.634 -15.915 150.649  1.00  0.00     0.061 C 
ATOM      6  C   UNL     1     -27.227 -15.956 147.789  1.00  0.00     0.116 C 
ATOM      7  C   UNL     1     -28.680 -15.757 147.321  1.00  0.00     0.103 C 
ATOM      8  C   UNL     1     -30.488 -16.822 151.818  1.00  0.00    -0.020 A 
ATOM      9  C   UNL     1     -28.150 -17.611 151.177  1.00  0.00    -0.011 A 
ATOM     10  C   UNL     1     -27.152 -16.627 149.143  1.00  0.00    -0.007 C 
ATOM     11  C   UNL     1     -29.291 -17.553 151.991  1.00  0.00     0.010 A 
ATOM     12  C   UNL     1     -29.386 -18.271 153.172  1.00  0.00     0.046 A 
ATOM     13  C   UNL     1     -31.306 -17.110 152.886  1.00  0.00     0.087 A 
ATOM     14  C   UNL     1     -27.101 -18.432 151.615  1.00  0.00     0.009 A 
ATOM     15  C   UNL     1     -28.344 -19.085 153.622  1.00  0.00     0.027 A 
ATOM     16  C   UNL     1     -27.199 -19.149 152.816  1.00  0.00     0.003 A 
ATOM     17  H   UNL     1     -30.984 -18.378 154.562  1.00  0.00     0.166 HD
ENDROOT
BRANCH   6  18
ATOM     18  C   UNL     1     -26.483 -16.787 146.723  1.00  0.00     0.230 C 
ATOM     19  O   UNL     1     -27.096 -17.307 145.786  1.00  0.00    -0.274 OA
ATOM     20  N   UNL     1     -25.092 -16.903 146.823  1.00  0.00    -0.343 N 
BRANCH  20  21
ATOM     21  C   UNL     1     -24.408 -17.681 145.786  1.00  0.00     0.116 C 
ATOM     22  C   UNL     1     -23.755 -16.821 144.714  1.00  0.00     0.027 C 
ENDBRANCH  20  21
BRANCH  20  23
ATOM     23  C   UNL     1     -24.292 -16.452 147.967  1.00  0.00     0.116 C 
ATOM     24  C   UNL     1     -23.318 -17.507 148.469  1.00  0.00     0.027 C 
ENDBRANCH  20  23
ENDBRANCH   6  18
BRANCH   1  25
ATOM     25  C   UNL     1     -29.606 -13.916 148.690  1.00  0.00     0.112 C 
BRANCH  25  26
ATOM     26  C   UNL     1     -30.779 -13.076 148.269  1.00  0.00    -0.019 C 
ATOM     27  C   UNL     1     -31.799 -12.737 149.071  1.00  0.00     0.005 C 
ENDBRANCH  25  26
ENDBRANCH   1  25
TORSDOF 5
ENDMDL
MODEL 15
REMARK VINA RESULT:    -8.046      1.353      2.005
REMARK INTER + INTRA:         -11.320
REMARK INTER:                 -11.692
REMARK INTRA:                   0.372
REMARK UNBOUND:                -0.923
REMARK SMILES C=CCN1C[C@H](C(=O)N(CC)CC)C=C2c3cccc4[nH]cc(c34)C[C@H]21
REMARK SMILES IDX 4 1 21 2 26 3 15 4 25 5 6 6 5 7 23 8 16 9 14 10 24 11 20 12
REMARK SMILES IDX 22 13 17 14 19 15 18 16 7 18 8 19 9 20 10 21 11 22 12 23
REMARK SMILES IDX 13 24 3 25 2 26 1 27
REMARK H PARENT 21 17
ROOT
ATOM      1  N   UNL     1     -28.504 -11.226 145.871  1.00  0.00    -0.291 NA
ATOM      2  N   UNL     1     -30.200  -7.242 141.663  1.00  0.00    -0.361 N 
ATOM      3  C   UNL     1     -28.513 -10.313 144.697  1.00  0.00     0.092 C 
ATOM      4  C   UNL     1     -28.117 -11.005 143.356  1.00  0.00    -0.026 C 
ATOM      5  C   UNL     1     -29.765  -9.360 144.653  1.00  0.00     0.061 C 
ATOM      6  C   UNL     1     -27.170 -12.974 144.599  1.00  0.00     0.116 C 
ATOM      7  C   UNL     1     -27.323 -12.100 145.857  1.00  0.00     0.103 C 
ATOM      8  C   UNL     1     -29.820  -8.603 143.374  1.00  0.00    -0.020 A 
ATOM      9  C   UNL     1     -28.331 -10.236 142.103  1.00  0.00    -0.011 A 
ATOM     10  C   UNL     1     -27.533 -12.222 143.337  1.00  0.00    -0.007 C 
ATOM     11  C   UNL     1     -29.140  -9.098 142.239  1.00  0.00     0.010 A 
ATOM     12  C   UNL     1     -29.393  -8.247 141.175  1.00  0.00     0.046 A 
ATOM     13  C   UNL     1     -30.470  -7.450 142.998  1.00  0.00     0.087 A 
ATOM     14  C   UNL     1     -27.788 -10.477 140.833  1.00  0.00     0.009 A 
ATOM     15  C   UNL     1     -28.864  -8.483 139.905  1.00  0.00     0.027 A 
ATOM     16  C   UNL     1     -28.055  -9.618 139.758  1.00  0.00     0.003 A 
ATOM     17  H   UNL     1     -30.549  -6.470 141.114  1.00  0.00     0.166 HD
ENDROOT
BRANCH   6  18
ATOM     18  C   UNL     1     -25.715 -13.482 144.534  1.00  0.00     0.230 C 
ATOM     19  O   UNL     1     -25.469 -14.665 144.278  1.00  0.00    -0.274 OA
ATOM     20  N   UNL     1     -24.680 -12.560 144.732  1.00  0.00    -0.343 N 
BRANCH  20  21
ATOM     21  C   UNL     1     -23.307 -13.066 144.645  1.00  0.00     0.116 C 
ATOM     22  C   UNL     1     -22.253 -11.968 144.669  1.00  0.00     0.027 C 
ENDBRANCH  20  21
BRANCH  20  23
ATOM     23  C   UNL     1     -24.863 -11.177 145.183  1.00  0.00     0.116 C 
ATOM     24  C   UNL     1     -24.780 -10.163 144.052  1.00  0.00     0.027 C 
ENDBRANCH  20  23
ENDBRANCH   6  18
BRANCH   1  25
ATOM     25  C   UNL     1     -29.754 -11.875 146.257  1.00  0.00     0.112 C 
BRANCH  25  26
ATOM     26  C   UNL     1     -29.751 -12.774 147.460  1.00  0.00    -0.019 C 
ATOM     27  C   UNL     1     -29.946 -14.100 147.420  1.00  0.00     0.005 C 
ENDBRANCH  25  26
ENDBRANCH   1  25
TORSDOF 5
ENDMDL
MODEL 16
REMARK VINA RESULT:    -8.000      1.987      7.650
REMARK INTER + INTRA:         -11.261
REMARK INTER:                 -10.582
REMARK INTRA:                  -0.679
REMARK UNBOUND:                -0.923
REMARK SMILES C=CCN1C[C@H](C(=O)N(CC)CC)C=C2c3cccc4[nH]cc(c34)C[C@H]21
REMARK SMILES IDX 4 1 21 2 26 3 15 4 25 5 6 6 5 7 23 8 16 9 14 10 24 11 20 12
REMARK SMILES IDX 22 13 17 14 19 15 18 16 7 18 8 19 9 20 10 21 11 22 12 23
REMARK SMILES IDX 13 24 3 25 2 26 1 27
REMARK H PARENT 21 17
ROOT
ATOM      1  N   UNL     1     -25.547 -12.947 143.980  1.00  0.00    -0.291 NA
ATOM      2  N   UNL     1     -26.857 -16.786 148.452  1.00  0.00    -0.361 N 
ATOM      3  C   UNL     1     -26.037 -13.529 145.257  1.00  0.00     0.092 C 
ATOM      4  C   UNL     1     -27.552 -13.275 145.528  1.00  0.00    -0.026 C 
ATOM      5  C   UNL     1     -25.511 -14.989 145.523  1.00  0.00     0.061 C 
ATOM      6  C   UNL     1     -27.611 -11.482 143.767  1.00  0.00     0.116 C 
ATOM      7  C   UNL     1     -26.076 -11.591 143.775  1.00  0.00     0.103 C 
ATOM      8  C   UNL     1     -26.172 -15.590 146.712  1.00  0.00    -0.020 A 
ATOM      9  C   UNL     1     -28.179 -14.019 146.651  1.00  0.00    -0.011 A 
ATOM     10  C   UNL     1     -28.250 -12.359 144.822  1.00  0.00    -0.007 C 
ATOM     11  C   UNL     1     -27.418 -15.087 147.149  1.00  0.00     0.010 A 
ATOM     12  C   UNL     1     -27.841 -15.847 148.228  1.00  0.00     0.046 A 
ATOM     13  C   UNL     1     -25.839 -16.642 147.534  1.00  0.00     0.087 A 
ATOM     14  C   UNL     1     -29.396 -13.754 147.295  1.00  0.00     0.009 A 
ATOM     15  C   UNL     1     -29.054 -15.597 148.871  1.00  0.00     0.027 A 
ATOM     16  C   UNL     1     -29.822 -14.533 148.381  1.00  0.00     0.003 A 
ATOM     17  H   UNL     1     -26.886 -17.484 149.182  1.00  0.00     0.166 HD
ENDROOT
BRANCH   6  18
ATOM     18  C   UNL     1     -27.994 -10.003 143.981  1.00  0.00     0.230 C 
ATOM     19  O   UNL     1     -27.657  -9.405 145.008  1.00  0.00    -0.274 OA
ATOM     20  N   UNL     1     -28.696  -9.345 142.965  1.00  0.00    -0.343 N 
BRANCH  20  21
ATOM     21  C   UNL     1     -29.029  -7.934 143.185  1.00  0.00     0.116 C 
ATOM     22  C   UNL     1     -30.518  -7.685 143.375  1.00  0.00     0.027 C 
ENDBRANCH  20  21
BRANCH  20  23
ATOM     23  C   UNL     1     -29.267  -9.996 141.781  1.00  0.00     0.116 C 
ATOM     24  C   UNL     1     -28.377  -9.892 140.553  1.00  0.00     0.027 C 
ENDBRANCH  20  23
ENDBRANCH   6  18
BRANCH   1  25
ATOM     25  C   UNL     1     -25.530 -13.795 142.791  1.00  0.00     0.112 C 
BRANCH  25  26
ATOM     26  C   UNL     1     -26.722 -13.768 141.877  1.00  0.00    -0.019 C 
ATOM     27  C   UNL     1     -26.678 -13.435 140.579  1.00  0.00     0.005 C 
ENDBRANCH  25  26
ENDBRANCH   1  25
TORSDOF 5
ENDMDL
MODEL 17
REMARK VINA RESULT:    -7.944      3.687      8.655
REMARK INTER + INTRA:         -11.189
REMARK INTER:                 -10.422
REMARK INTRA:                  -0.766
REMARK UNBOUND:                -0.923
REMARK SMILES C=CCN1C[C@H](C(=O)N(CC)CC)C=C2c3cccc4[nH]cc(c34)C[C@H]21
REMARK SMILES IDX 4 1 21 2 26 3 15 4 25 5 6 6 5 7 23 8 16 9 14 10 24 11 20 12
REMARK SMILES IDX 22 13 17 14 19 15 18 16 7 18 8 19 9 20 10 21 11 22 12 23
REMARK SMILES IDX 13 24 3 25 2 26 1 27
REMARK H PARENT 21 17
ROOT
ATOM      1  N   UNL     1     -29.231 -14.798 147.286  1.00  0.00    -0.291 NA
ATOM      2  N   UNL     1     -28.810 -18.471 152.059  1.00  0.00    -0.361 N 
ATOM      3  C   UNL     1     -28.805 -15.873 148.220  1.00  0.00     0.092 C 
ATOM      4  C   UNL     1     -27.289 -15.830 148.583  1.00  0.00    -0.026 C 
ATOM      5  C   UNL     1     -29.808 -16.100 149.413  1.00  0.00     0.061 C 
ATOM      6  C   UNL     1     -26.824 -14.287 146.655  1.00  0.00     0.116 C 
ATOM      7  C   UNL     1     -28.257 -14.619 146.200  1.00  0.00     0.103 C 
ATOM      8  C   UNL     1     -29.248 -17.051 150.411  1.00  0.00    -0.020 A 
ATOM      9  C   UNL     1     -26.827 -16.710 149.689  1.00  0.00    -0.011 A 
ATOM     10  C   UNL     1     -26.415 -15.084 147.874  1.00  0.00    -0.007 C 
ATOM     11  C   UNL     1     -27.852 -17.253 150.478  1.00  0.00     0.010 A 
ATOM     12  C   UNL     1     -27.589 -18.132 151.516  1.00  0.00     0.046 A 
ATOM     13  C   UNL     1     -29.826 -17.817 151.397  1.00  0.00     0.087 A 
ATOM     14  C   UNL     1     -25.516 -17.097 150.000  1.00  0.00     0.009 A 
ATOM     15  C   UNL     1     -26.287 -18.518 151.839  1.00  0.00     0.027 A 
ATOM     16  C   UNL     1     -25.255 -17.980 151.057  1.00  0.00     0.003 A 
ATOM     17  H   UNL     1     -28.936 -19.104 152.836  1.00  0.00     0.166 HD
ENDROOT
BRANCH   6  18
ATOM     18  C   UNL     1     -25.866 -14.559 145.477  1.00  0.00     0.230 C 
ATOM     19  O   UNL     1     -25.666 -15.710 145.077  1.00  0.00    -0.274 OA
ATOM     20  N   UNL     1     -25.261 -13.465 144.847  1.00  0.00    -0.343 N 
BRANCH  20  21
ATOM     21  C   UNL     1     -24.371 -13.750 143.717  1.00  0.00     0.116 C 
ATOM     22  C   UNL     1     -22.907 -13.457 144.010  1.00  0.00     0.027 C 
ENDBRANCH  20  21
BRANCH  20  23
ATOM     23  C   UNL     1     -25.315 -12.082 145.331  1.00  0.00     0.116 C 
ATOM     24  C   UNL     1     -26.364 -11.239 144.621  1.00  0.00     0.027 C 
ENDBRANCH  20  23
ENDBRANCH   6  18
BRANCH   1  25
ATOM     25  C   UNL     1     -29.772 -13.563 147.847  1.00  0.00     0.112 C 
BRANCH  25  26
ATOM     26  C   UNL     1     -29.277 -12.254 147.301  1.00  0.00    -0.019 C 
ATOM     27  C   UNL     1     -30.028 -11.387 146.605  1.00  0.00     0.005 C 
ENDBRANCH  25  26
ENDBRANCH   1  25
TORSDOF 5
ENDMDL
MODEL 18
REMARK VINA RESULT:    -7.869      2.643      6.467
REMARK INTER + INTRA:         -11.092
REMARK INTER:                 -10.295
REMARK INTRA:                  -0.796
REMARK UNBOUND:                -0.923
REMARK SMILES C=CCN1C[C@H](C(=O)N(CC)CC)C=C2c3cccc4[nH]cc(c34)C[C@H]21
REMARK SMILES IDX 4 1 21 2 26 3 15 4 25 5 6 6 5 7 23 8 16 9 14 10 24 11 20 12
REMARK SMILES IDX 22 13 17 14 19 15 18 16 7 18 8 19 9 20 10 21 11 22 12 23
REMARK SMILES IDX 13 24 3 25 2 26 1 27
REMARK H PARENT 21 17
ROOT
ATOM      1  N   UNL     1     -28.332 -12.278 145.480  1.00  0.00    -0.291 NA
ATOM      2  N   UNL     1     -32.830 -12.720 149.483  1.00  0.00    -0.361 N 
ATOM      3  C   UNL     1     -29.373 -12.813 146.396  1.00  0.00     0.092 C 
ATOM      4  C   UNL     1     -28.828 -13.825 147.451  1.00  0.00    -0.026 C 
ATOM      5  C   UNL     1     -30.367 -11.713 146.926  1.00  0.00     0.061 C 
ATOM      6  C   UNL     1     -26.698 -14.106 146.146  1.00  0.00     0.116 C 
ATOM      7  C   UNL     1     -27.425 -13.341 145.025  1.00  0.00     0.103 C 
ATOM      8  C   UNL     1     -31.269 -12.262 147.974  1.00  0.00    -0.020 A 
ATOM      9  C   UNL     1     -29.744 -14.223 148.551  1.00  0.00    -0.011 A 
ATOM     10  C   UNL     1     -27.603 -14.378 147.328  1.00  0.00    -0.007 C 
ATOM     11  C   UNL     1     -30.886 -13.418 148.689  1.00  0.00     0.010 A 
ATOM     12  C   UNL     1     -31.861 -13.689 149.635  1.00  0.00     0.046 A 
ATOM     13  C   UNL     1     -32.478 -11.845 148.478  1.00  0.00     0.087 A 
ATOM     14  C   UNL     1     -29.633 -15.318 149.420  1.00  0.00     0.009 A 
ATOM     15  C   UNL     1     -31.756 -14.771 150.510  1.00  0.00     0.027 A 
ATOM     16  C   UNL     1     -30.619 -15.580 150.381  1.00  0.00     0.003 A 
ATOM     17  H   UNL     1     -33.672 -12.660 150.037  1.00  0.00     0.166 HD
ENDROOT
BRANCH   6  18
ATOM     18  C   UNL     1     -26.152 -15.424 145.560  1.00  0.00     0.230 C 
ATOM     19  O   UNL     1     -26.887 -16.407 145.422  1.00  0.00    -0.274 OA
ATOM     20  N   UNL     1     -24.814 -15.465 145.152  1.00  0.00    -0.343 N 
BRANCH  20  21
ATOM     21  C   UNL     1     -24.326 -16.723 144.579  1.00  0.00     0.116 C 
ATOM     22  C   UNL     1     -23.796 -17.698 145.621  1.00  0.00     0.027 C 
ENDBRANCH  20  21
BRANCH  20  23
ATOM     23  C   UNL     1     -23.826 -14.411 145.404  1.00  0.00     0.116 C 
ATOM     24  C   UNL     1     -23.541 -13.552 144.182  1.00  0.00     0.027 C 
ENDBRANCH  20  23
ENDBRANCH   6  18
BRANCH   1  25
ATOM     25  C   UNL     1     -27.686 -11.014 145.825  1.00  0.00     0.112 C 
BRANCH  25  26
ATOM     26  C   UNL     1     -27.356 -10.055 144.716  1.00  0.00    -0.019 C 
ATOM     27  C   UNL     1     -28.265  -9.451 143.938  1.00  0.00     0.005 C 
ENDBRANCH  25  26
ENDBRANCH   1  25
TORSDOF 5
ENDMDL
MODEL 19
REMARK VINA RESULT:    -7.761      2.698      8.009
REMARK INTER + INTRA:         -10.953
REMARK INTER:                 -10.192
REMARK INTRA:                  -0.761
REMARK UNBOUND:                -0.923
REMARK SMILES C=CCN1C[C@H](C(=O)N(CC)CC)C=C2c3cccc4[nH]cc(c34)C[C@H]21
REMARK SMILES IDX 4 1 21 2 26 3 15 4 25 5 6 6 5 7 23 8 16 9 14 10 24 11 20 12
REMARK SMILES IDX 22 13 17 14 19 15 18 16 7 18 8 19 9 20 10 21 11 22 12 23
REMARK SMILES IDX 13 24 3 25 2 26 1 27
REMARK H PARENT 21 17
ROOT
ATOM      1  N   UNL     1     -29.584 -13.836 147.198  1.00  0.00    -0.291 NA
ATOM      2  N   UNL     1     -26.956 -18.093 150.578  1.00  0.00    -0.361 N 
ATOM      3  C   UNL     1     -28.721 -14.957 147.657  1.00  0.00     0.092 C 
ATOM      4  C   UNL     1     -27.197 -14.712 147.435  1.00  0.00    -0.026 C 
ATOM      5  C   UNL     1     -29.143 -15.539 149.058  1.00  0.00     0.061 C 
ATOM      6  C   UNL     1     -27.684 -12.826 145.847  1.00  0.00     0.116 C 
ATOM      7  C   UNL     1     -29.141 -13.323 145.894  1.00  0.00     0.103 C 
ATOM      8  C   UNL     1     -28.146 -16.526 149.552  1.00  0.00    -0.020 A 
ATOM      9  C   UNL     1     -26.253 -15.663 148.077  1.00  0.00    -0.011 A 
ATOM     10  C   UNL     1     -26.752 -13.724 146.630  1.00  0.00    -0.007 C 
ATOM     11  C   UNL     1     -26.824 -16.493 149.054  1.00  0.00     0.010 A 
ATOM     12  C   UNL     1     -26.088 -17.468 149.709  1.00  0.00     0.046 A 
ATOM     13  C   UNL     1     -28.209 -17.526 150.494  1.00  0.00     0.087 A 
ATOM     14  C   UNL     1     -24.895 -15.864 147.793  1.00  0.00     0.009 A 
ATOM     15  C   UNL     1     -24.734 -17.670 149.439  1.00  0.00     0.027 A 
ATOM     16  C   UNL     1     -24.153 -16.846 148.465  1.00  0.00     0.003 A 
ATOM     17  H   UNL     1     -26.703 -18.853 151.193  1.00  0.00     0.166 HD
ENDROOT
BRANCH   6  18
ATOM     18  C   UNL     1     -27.248 -12.738 144.370  1.00  0.00     0.230 C 
ATOM     19  O   UNL     1     -26.657 -13.678 143.829  1.00  0.00    -0.274 OA
ATOM     20  N   UNL     1     -27.576 -11.585 143.649  1.00  0.00    -0.343 N 
BRANCH  20  21
ATOM     21  C   UNL     1     -27.168 -11.536 142.241  1.00  0.00     0.116 C 
ATOM     22  C   UNL     1     -28.209 -10.904 141.329  1.00  0.00     0.027 C 
ENDBRANCH  20  21
BRANCH  20  23
ATOM     23  C   UNL     1     -28.141 -10.363 144.230  1.00  0.00     0.116 C 
ATOM     24  C   UNL     1     -27.082  -9.362 144.667  1.00  0.00     0.027 C 
ENDBRANCH  20  23
ENDBRANCH   6  18
BRANCH   1  25
ATOM     25  C   UNL     1     -29.976 -12.817 148.168  1.00  0.00     0.112 C 
BRANCH  25  26
ATOM     26  C   UNL     1     -31.433 -12.673 148.504  1.00  0.00    -0.019 C 
ATOM     27  C   UNL     1     -32.030 -13.245 149.560  1.00  0.00     0.005 C 
ENDBRANCH  25  26
ENDBRANCH   1  25
TORSDOF 5
ENDMDL
MODEL 20
REMARK VINA RESULT:    -7.742      1.689      7.060
REMARK INTER + INTRA:         -10.927
REMARK INTER:                 -11.133
REMARK INTRA:                   0.205
REMARK UNBOUND:                -0.923
REMARK SMILES C=CCN1C[C@H](C(=O)N(CC)CC)C=C2c3cccc4[nH]cc(c34)C[C@H]21
REMARK SMILES IDX 4 1 21 2 26 3 15 4 25 5 6 6 5 7 23 8 16 9 14 10 24 11 20 12
REMARK SMILES IDX 22 13 17 14 19 15 18 16 7 18 8 19 9 20 10 21 11 22 12 23
REMARK SMILES IDX 13 24 3 25 2 26 1 27
REMARK H PARENT 21 17
ROOT
ATOM      1  N   UNL     1     -29.394 -12.773 146.197  1.00  0.00    -0.291 NA
ATOM      2  N   UNL     1     -26.257 -17.916 146.588  1.00  0.00    -0.361 N 
ATOM      3  C   UNL     1     -28.498 -13.919 145.892  1.00  0.00     0.092 C 
ATOM      4  C   UNL     1     -27.053 -13.500 145.480  1.00  0.00    -0.026 C 
ATOM      5  C   UNL     1     -28.620 -15.102 146.924  1.00  0.00     0.061 C 
ATOM      6  C   UNL     1     -27.804 -11.135 145.082  1.00  0.00     0.116 C 
ATOM      7  C   UNL     1     -29.233 -11.694 145.212  1.00  0.00     0.103 C 
ATOM      8  C   UNL     1     -27.580 -16.137 146.681  1.00  0.00    -0.020 A 
ATOM      9  C   UNL     1     -26.030 -14.574 145.393  1.00  0.00    -0.011 A 
ATOM     10  C   UNL     1     -26.759 -12.227 145.142  1.00  0.00    -0.007 C 
ATOM     11  C   UNL     1     -26.403 -15.794 145.979  1.00  0.00     0.010 A 
ATOM     12  C   UNL     1     -25.580 -16.908 145.936  1.00  0.00     0.046 A 
ATOM     13  C   UNL     1     -27.472 -17.458 147.048  1.00  0.00     0.087 A 
ATOM     14  C   UNL     1     -24.780 -14.533 144.760  1.00  0.00     0.009 A 
ATOM     15  C   UNL     1     -24.331 -16.875 145.316  1.00  0.00     0.027 A 
ATOM     16  C   UNL     1     -23.949 -15.661 144.728  1.00  0.00     0.003 A 
ATOM     17  H   UNL     1     -25.904 -18.855 146.715  1.00  0.00     0.166 HD
ENDROOT
BRANCH   6  18
ATOM     18  C   UNL     1     -27.707 -10.356 143.755  1.00  0.00     0.230 C 
ATOM     19  O   UNL     1     -26.760 -10.538 142.983  1.00  0.00    -0.274 OA
ATOM     20  N   UNL     1     -28.739  -9.469 143.427  1.00  0.00    -0.343 N 
BRANCH  20  21
ATOM     21  C   UNL     1     -28.632  -8.757 142.150  1.00  0.00     0.116 C 
ATOM     22  C   UNL     1     -28.971  -9.621 140.944  1.00  0.00     0.027 C 
ENDBRANCH  20  21
BRANCH  20  23
ATOM     23  C   UNL     1     -29.824  -9.074 144.331  1.00  0.00     0.116 C 
ATOM     24  C   UNL     1     -30.859  -8.178 143.668  1.00  0.00     0.027 C 
ENDBRANCH  20  23
ENDBRANCH   6  18
BRANCH   1  25
ATOM     25  C   UNL     1     -29.516 -12.336 147.586  1.00  0.00     0.112 C 
BRANCH  25  26
ATOM     26  C   UNL     1     -30.861 -12.423 148.247  1.00  0.00    -0.019 C 
ATOM     27  C   UNL     1     -31.261 -13.437 149.028  1.00  0.00     0.005 C 
ENDBRANCH  25  26
ENDBRANCH   1  25
TORSDOF 5
ENDMDL
