MODEL 1
REMARK VINA RESULT:    -8.109      0.000      0.000
REMARK INTER + INTRA:         -11.389
REMARK INTER:                 -10.479
REMARK INTRA:                  -0.910
REMARK UNBOUND:                -0.910
REMARK SMILES C=CCN1C[C@H](C(=O)N(CC)CC)C=C2c3cccc4[nH]cc(c34)C[C@H]21
REMARK SMILES IDX 4 1 21 2 26 3 15 4 25 5 6 6 5 7 23 8 16 9 14 10 24 11 20 12
REMARK SMILES IDX 22 13 17 14 19 15 18 16 7 18 8 19 9 20 10 21 11 22 12 23
REMARK SMILES IDX 13 24 3 25 2 26 1 27
REMARK H PARENT 21 17
ROOT
ATOM      1  N   UNL     1      95.370 109.555  97.407  1.00  0.00    -0.291 NA
ATOM      2  N   UNL     1      97.610 104.935  94.231  1.00  0.00    -0.361 N 
ATOM      3  C   UNL     1      95.682 108.602  96.310  1.00  0.00     0.092 C 
ATOM      4  C   UNL     1      96.249 109.280  95.025  1.00  0.00    -0.026 C 
ATOM      5  C   UNL     1      96.419 107.300  96.801  1.00  0.00     0.061 C 
ATOM      6  C   UNL     1      95.474 111.535  95.819  1.00  0.00     0.116 C 
ATOM      7  C   UNL     1      94.695 110.756  96.894  1.00  0.00     0.103 C 
ATOM      8  C   UNL     1      96.868 106.471  95.651  1.00  0.00    -0.020 A 
ATOM      9  C   UNL     1      96.811 108.391  93.975  1.00  0.00    -0.011 A 
ATOM     10  C   UNL     1      96.165 110.615  94.837  1.00  0.00    -0.007 C 
ATOM     11  C   UNL     1      97.042 107.069  94.383  1.00  0.00     0.010 A 
ATOM     12  C   UNL     1      97.515 106.105  93.508  1.00  0.00     0.046 A 
ATOM     13  C   UNL     1      97.223 105.147  95.536  1.00  0.00     0.087 A 
ATOM     14  C   UNL     1      97.083 108.696  92.634  1.00  0.00     0.009 A 
ATOM     15  C   UNL     1      97.797 106.400  92.173  1.00  0.00     0.027 A 
ATOM     16  C   UNL     1      97.571 107.718  91.755  1.00  0.00     0.003 A 
ATOM     17  H   UNL     1      97.927 104.053  93.855  1.00  0.00     0.166 HD
ENDROOT
BRANCH   6  18
ATOM     18  C   UNL     1      94.489 112.473  95.090  1.00  0.00     0.230 C 
ATOM     19  O   UNL     1      93.461 112.028  94.570  1.00  0.00    -0.274 OA
ATOM     20  N   UNL     1      94.770 113.844  95.068  1.00  0.00    -0.343 N 
BRANCH  20  21
ATOM     21  C   UNL     1      93.807 114.714  94.386  1.00  0.00     0.116 C 
ATOM     22  C   UNL     1      93.005 115.593  95.335  1.00  0.00     0.027 C 
ENDBRANCH  20  21
BRANCH  20  23
ATOM     23  C   UNL     1      96.024 114.451  95.523  1.00  0.00     0.116 C 
ATOM     24  C   UNL     1      97.039 114.638  94.405  1.00  0.00     0.027 C 
ENDBRANCH  20  23
ENDBRANCH   6  18
BRANCH   1  25
ATOM     25  C   UNL     1      96.388 109.801  98.425  1.00  0.00     0.112 C 
BRANCH  25  26
ATOM     26  C   UNL     1      96.035 110.681  99.590  1.00  0.00    -0.019 C 
ATOM     27  C   UNL     1      96.735 111.760  99.968  1.00  0.00     0.005 C 
ENDBRANCH  25  26
ENDBRANCH   1  25
TORSDOF 5
ENDMDL
MODEL 2
REMARK VINA RESULT:    -8.016      2.846      5.669
REMARK INTER + INTRA:         -11.269
REMARK INTER:                 -10.587
REMARK INTRA:                  -0.682
REMARK UNBOUND:                -0.910
REMARK SMILES C=CCN1C[C@H](C(=O)N(CC)CC)C=C2c3cccc4[nH]cc(c34)C[C@H]21
REMARK SMILES IDX 4 1 21 2 26 3 15 4 25 5 6 6 5 7 23 8 16 9 14 10 24 11 20 12
REMARK SMILES IDX 22 13 17 14 19 15 18 16 7 18 8 19 9 20 10 21 11 22 12 23
REMARK SMILES IDX 13 24 3 25 2 26 1 27
REMARK H PARENT 21 17
ROOT
ATOM      1  N   UNL     1      96.636 109.055  95.825  1.00  0.00    -0.291 NA
ATOM      2  N   UNL     1      99.446 105.133  99.456  1.00  0.00    -0.361 N 
ATOM      3  C   UNL     1      97.102 107.803  96.479  1.00  0.00     0.092 C 
ATOM      4  C   UNL     1      97.720 106.766  95.491  1.00  0.00    -0.026 C 
ATOM      5  C   UNL     1      97.888 108.051  97.821  1.00  0.00     0.061 C 
ATOM      6  C   UNL     1      96.725 107.977  93.527  1.00  0.00     0.116 C 
ATOM      7  C   UNL     1      95.920 108.768  94.574  1.00  0.00     0.103 C 
ATOM      8  C   UNL     1      98.486 106.790  98.334  1.00  0.00    -0.020 A 
ATOM      9  C   UNL     1      98.425 105.598  96.081  1.00  0.00    -0.011 A 
ATOM     10  C   UNL     1      97.556 106.881  94.156  1.00  0.00    -0.007 C 
ATOM     11  C   UNL     1      98.717 105.714  97.449  1.00  0.00     0.010 A 
ATOM     12  C   UNL     1      99.325 104.690  98.156  1.00  0.00     0.046 A 
ATOM     13  C   UNL     1      98.942 106.410  99.575  1.00  0.00     0.087 A 
ATOM     14  C   UNL     1      98.781 104.394  95.458  1.00  0.00     0.009 A 
ATOM     15  C   UNL     1      99.691 103.490  97.544  1.00  0.00     0.027 A 
ATOM     16  C   UNL     1      99.405 103.365  96.177  1.00  0.00     0.003 A 
ATOM     17  H   UNL     1      99.853 104.597 100.209  1.00  0.00     0.166 HD
ENDROOT
BRANCH   6  18
ATOM     18  C   UNL     1      95.737 107.392  92.496  1.00  0.00     0.230 C 
ATOM     19  O   UNL     1      94.568 107.149  92.809  1.00  0.00    -0.274 OA
ATOM     20  N   UNL     1      96.189 107.182  91.188  1.00  0.00    -0.343 N 
BRANCH  20  21
ATOM     21  C   UNL     1      95.224 106.645  90.224  1.00  0.00     0.116 C 
ATOM     22  C   UNL     1      95.754 105.457  89.434  1.00  0.00     0.027 C 
ENDBRANCH  20  21
BRANCH  20  23
ATOM     23  C   UNL     1      97.584 107.298  90.753  1.00  0.00     0.116 C 
ATOM     24  C   UNL     1      97.918 108.661  90.167  1.00  0.00     0.027 C 
ENDBRANCH  20  23
ENDBRANCH   6  18
BRANCH   1  25
ATOM     25  C   UNL     1      97.550 110.193  95.773  1.00  0.00     0.112 C 
BRANCH  25  26
ATOM     26  C   UNL     1      96.982 111.552  95.479  1.00  0.00    -0.019 C 
ATOM     27  C   UNL     1      97.575 112.474  94.706  1.00  0.00     0.005 C 
ENDBRANCH  25  26
ENDBRANCH   1  25
TORSDOF 5
ENDMDL
MODEL 3
REMARK VINA RESULT:    -7.761      3.857      5.573
REMARK INTER + INTRA:         -10.940
REMARK INTER:                 -10.042
REMARK INTRA:                  -0.898
REMARK UNBOUND:                -0.910
REMARK SMILES C=CCN1C[C@H](C(=O)N(CC)CC)C=C2c3cccc4[nH]cc(c34)C[C@H]21
REMARK SMILES IDX 4 1 21 2 26 3 15 4 25 5 6 6 5 7 23 8 16 9 14 10 24 11 20 12
REMARK SMILES IDX 22 13 17 14 19 15 18 16 7 18 8 19 9 20 10 21 11 22 12 23
REMARK SMILES IDX 13 24 3 25 2 26 1 27
REMARK H PARENT 21 17
ROOT
ATOM      1  N   UNL     1      97.003 108.011  96.524  1.00  0.00    -0.291 NA
ATOM      2  N   UNL     1      98.569 102.183  96.712  1.00  0.00    -0.361 N 
ATOM      3  C   UNL     1      97.776 106.749  96.672  1.00  0.00     0.092 C 
ATOM      4  C   UNL     1      98.494 106.606  98.050  1.00  0.00    -0.026 C 
ATOM      5  C   UNL     1      97.011 105.479  96.143  1.00  0.00     0.061 C 
ATOM      6  C   UNL     1      98.177 109.055  98.520  1.00  0.00     0.116 C 
ATOM      7  C   UNL     1      97.756 109.161  97.042  1.00  0.00     0.103 C 
ATOM      8  C   UNL     1      97.745 104.230  96.480  1.00  0.00    -0.020 A 
ATOM      9  C   UNL     1      99.085 105.283  98.377  1.00  0.00    -0.011 A 
ATOM     10  C   UNL     1      98.641 107.660  98.880  1.00  0.00    -0.007 C 
ATOM     11  C   UNL     1      98.672 104.230  97.545  1.00  0.00     0.010 A 
ATOM     12  C   UNL     1      99.172 102.946  97.688  1.00  0.00     0.046 A 
ATOM     13  C   UNL     1      97.696 102.952  95.974  1.00  0.00     0.087 A 
ATOM     14  C   UNL     1     100.030 104.975  99.366  1.00  0.00     0.009 A 
ATOM     15  C   UNL     1     100.107 102.627  98.675  1.00  0.00     0.027 A 
ATOM     16  C   UNL     1     100.524 103.671  99.511  1.00  0.00     0.003 A 
ATOM     17  H   UNL     1      98.739 101.198  96.567  1.00  0.00     0.166 HD
ENDROOT
BRANCH   6  18
ATOM     18  C   UNL     1      99.293 110.087  98.782  1.00  0.00     0.230 C 
ATOM     19  O   UNL     1     100.452 109.873  98.413  1.00  0.00    -0.274 OA
ATOM     20  N   UNL     1      98.951 111.290  99.410  1.00  0.00    -0.343 N 
BRANCH  20  21
ATOM     21  C   UNL     1     100.026 112.262  99.629  1.00  0.00     0.116 C 
ATOM     22  C   UNL     1     100.022 113.407  98.626  1.00  0.00     0.027 C 
ENDBRANCH  20  21
BRANCH  20  23
ATOM     23  C   UNL     1      97.646 111.580 100.014  1.00  0.00     0.116 C 
ATOM     24  C   UNL     1      96.652 112.181  99.033  1.00  0.00     0.027 C 
ENDBRANCH  20  23
ENDBRANCH   6  18
BRANCH   1  25
ATOM     25  C   UNL     1      95.580 107.997  96.854  1.00  0.00     0.112 C 
BRANCH  25  26
ATOM     26  C   UNL     1      94.947 109.270  97.339  1.00  0.00    -0.019 C 
ATOM     27  C   UNL     1      94.219 109.380  98.460  1.00  0.00     0.005 C 
ENDBRANCH  25  26
ENDBRANCH   1  25
TORSDOF 5
ENDMDL
MODEL 4
REMARK VINA RESULT:    -7.760      1.992      3.026
REMARK INTER + INTRA:         -10.938
REMARK INTER:                 -10.210
REMARK INTRA:                  -0.728
REMARK UNBOUND:                -0.910
REMARK SMILES C=CCN1C[C@H](C(=O)N(CC)CC)C=C2c3cccc4[nH]cc(c34)C[C@H]21
REMARK SMILES IDX 4 1 21 2 26 3 15 4 25 5 6 6 5 7 23 8 16 9 14 10 24 11 20 12
REMARK SMILES IDX 22 13 17 14 19 15 18 16 7 18 8 19 9 20 10 21 11 22 12 23
REMARK SMILES IDX 13 24 3 25 2 26 1 27
REMARK H PARENT 21 17
ROOT
ATOM      1  N   UNL     1      96.188 107.525  95.530  1.00  0.00    -0.291 NA
ATOM      2  N   UNL     1      98.113 105.040  90.376  1.00  0.00    -0.361 N 
ATOM      3  C   UNL     1      96.439 107.248  94.091  1.00  0.00     0.092 C 
ATOM      4  C   UNL     1      97.065 108.449  93.316  1.00  0.00    -0.026 C 
ATOM      5  C   UNL     1      97.075 105.832  93.827  1.00  0.00     0.061 C 
ATOM      6  C   UNL     1      96.448 110.027  95.173  1.00  0.00     0.116 C 
ATOM      7  C   UNL     1      95.606 108.861  95.722  1.00  0.00     0.103 C 
ATOM      8  C   UNL     1      97.473 105.680  92.402  1.00  0.00    -0.020 A 
ATOM      9  C   UNL     1      97.569 108.186  91.943  1.00  0.00    -0.011 A 
ATOM     10  C   UNL     1      97.079 109.693  93.838  1.00  0.00    -0.007 C 
ATOM     11  C   UNL     1      97.700 106.828  91.612  1.00  0.00     0.010 A 
ATOM     12  C   UNL     1      98.109 106.418  90.354  1.00  0.00     0.046 A 
ATOM     13  C   UNL     1      97.731 104.580  91.617  1.00  0.00     0.087 A 
ATOM     14  C   UNL     1      97.874 109.114  90.939  1.00  0.00     0.009 A 
ATOM     15  C   UNL     1      98.423 107.334  89.349  1.00  0.00     0.027 A 
ATOM     16  C   UNL     1      98.297 108.693  89.670  1.00  0.00     0.003 A 
ATOM     17  H   UNL     1      98.368 104.455  89.593  1.00  0.00     0.166 HD
ENDROOT
BRANCH   6  18
ATOM     18  C   UNL     1      95.541 111.268  95.054  1.00  0.00     0.230 C 
ATOM     19  O   UNL     1      94.334 111.149  94.818  1.00  0.00    -0.274 OA
ATOM     20  N   UNL     1      96.110 112.530  95.260  1.00  0.00    -0.343 N 
BRANCH  20  21
ATOM     21  C   UNL     1      95.221 113.691  95.162  1.00  0.00     0.116 C 
ATOM     22  C   UNL     1      94.738 114.201  96.512  1.00  0.00     0.027 C 
ENDBRANCH  20  21
BRANCH  20  23
ATOM     23  C   UNL     1      97.547 112.790  95.399  1.00  0.00     0.116 C 
ATOM     24  C   UNL     1      98.103 113.682  94.300  1.00  0.00     0.027 C 
ENDBRANCH  20  23
ENDBRANCH   6  18
BRANCH   1  25
ATOM     25  C   UNL     1      97.212 107.147  96.500  1.00  0.00     0.112 C 
BRANCH  25  26
ATOM     26  C   UNL     1      98.614 107.643  96.287  1.00  0.00    -0.019 C 
ATOM     27  C   UNL     1      99.697 106.855  96.217  1.00  0.00     0.005 C 
ENDBRANCH  25  26
ENDBRANCH   1  25
TORSDOF 5
ENDMDL
MODEL 5
REMARK VINA RESULT:    -7.574      2.392      6.863
REMARK INTER + INTRA:         -10.698
REMARK INTER:                 -10.022
REMARK INTRA:                  -0.675
REMARK UNBOUND:                -0.910
REMARK SMILES C=CCN1C[C@H](C(=O)N(CC)CC)C=C2c3cccc4[nH]cc(c34)C[C@H]21
REMARK SMILES IDX 4 1 21 2 26 3 15 4 25 5 6 6 5 7 23 8 16 9 14 10 24 11 20 12
REMARK SMILES IDX 22 13 17 14 19 15 18 16 7 18 8 19 9 20 10 21 11 22 12 23
REMARK SMILES IDX 13 24 3 25 2 26 1 27
REMARK H PARENT 21 17
ROOT
ATOM      1  N   UNL     1      97.729 106.255  95.171  1.00  0.00    -0.291 NA
ATOM      2  N   UNL     1      95.864 110.537  98.998  1.00  0.00    -0.361 N 
ATOM      3  C   UNL     1      97.399 107.568  95.787  1.00  0.00     0.092 C 
ATOM      4  C   UNL     1      96.462 108.458  94.913  1.00  0.00    -0.026 C 
ATOM      5  C   UNL     1      97.051 107.473  97.319  1.00  0.00     0.061 C 
ATOM      6  C   UNL     1      96.915 107.033  92.894  1.00  0.00     0.116 C 
ATOM      7  C   UNL     1      98.034 106.399  93.741  1.00  0.00     0.103 C 
ATOM      8  C   UNL     1      96.554 108.775  97.839  1.00  0.00    -0.020 A 
ATOM      9  C   UNL     1      95.890 109.674  95.548  1.00  0.00    -0.011 A 
ATOM     10  C   UNL     1      96.238 108.180  93.611  1.00  0.00    -0.007 C 
ATOM     11  C   UNL     1      96.014 109.725  96.945  1.00  0.00     0.010 A 
ATOM     12  C   UNL     1      95.576 110.815  97.679  1.00  0.00     0.046 A 
ATOM     13  C   UNL     1      96.455 109.297  99.108  1.00  0.00     0.087 A 
ATOM     14  C   UNL     1      95.298 110.781  94.925  1.00  0.00     0.009 A 
ATOM     15  C   UNL     1      94.978 111.919  97.070  1.00  0.00     0.027 A 
ATOM     16  C   UNL     1      94.849 111.878  95.675  1.00  0.00     0.003 A 
ATOM     17  H   UNL     1      95.661 111.154  99.772  1.00  0.00     0.166 HD
ENDROOT
BRANCH   6  18
ATOM     18  C   UNL     1      97.526 107.506  91.559  1.00  0.00     0.230 C 
ATOM     19  O   UNL     1      97.793 108.698  91.373  1.00  0.00    -0.274 OA
ATOM     20  N   UNL     1      97.808 106.547  90.580  1.00  0.00    -0.343 N 
BRANCH  20  21
ATOM     21  C   UNL     1      98.407 107.021  89.329  1.00  0.00     0.116 C 
ATOM     22  C   UNL     1      99.357 106.018  88.692  1.00  0.00     0.027 C 
ENDBRANCH  20  21
BRANCH  20  23
ATOM     23  C   UNL     1      97.399 105.140  90.641  1.00  0.00     0.116 C 
ATOM     24  C   UNL     1      96.153 104.842  89.820  1.00  0.00     0.027 C 
ENDBRANCH  20  23
ENDBRANCH   6  18
BRANCH   1  25
ATOM     25  C   UNL     1      96.908 105.099  95.520  1.00  0.00     0.112 C 
BRANCH  25  26
ATOM     26  C   UNL     1      97.567 103.935  96.203  1.00  0.00    -0.019 C 
ATOM     27  C   UNL     1      98.585 104.039  97.070  1.00  0.00     0.005 C 
ENDBRANCH  25  26
ENDBRANCH   1  25
TORSDOF 5
ENDMDL
MODEL 6
REMARK VINA RESULT:    -7.465      3.828      6.781
REMARK INTER + INTRA:         -10.557
REMARK INTER:                  -9.709
REMARK INTRA:                  -0.848
REMARK UNBOUND:                -0.910
REMARK SMILES C=CCN1C[C@H](C(=O)N(CC)CC)C=C2c3cccc4[nH]cc(c34)C[C@H]21
REMARK SMILES IDX 4 1 21 2 26 3 15 4 25 5 6 6 5 7 23 8 16 9 14 10 24 11 20 12
REMARK SMILES IDX 22 13 17 14 19 15 18 16 7 18 8 19 9 20 10 21 11 22 12 23
REMARK SMILES IDX 13 24 3 25 2 26 1 27
REMARK H PARENT 21 17
ROOT
ATOM      1  N   UNL     1      97.192 108.607  95.585  1.00  0.00    -0.291 NA
ATOM      2  N   UNL     1      95.567 107.431  89.890  1.00  0.00    -0.361 N 
ATOM      3  C   UNL     1      97.202 108.168  94.165  1.00  0.00     0.092 C 
ATOM      4  C   UNL     1      97.607 106.674  93.968  1.00  0.00    -0.026 C 
ATOM      5  C   UNL     1      95.956 108.671  93.344  1.00  0.00     0.061 C 
ATOM      6  C   UNL     1      98.528 106.570  96.305  1.00  0.00     0.116 C 
ATOM      7  C   UNL     1      98.367 108.101  96.307  1.00  0.00     0.103 C 
ATOM      8  C   UNL     1      95.920 108.056  91.990  1.00  0.00    -0.020 A 
ATOM      9  C   UNL     1      97.412 106.086  92.618  1.00  0.00    -0.011 A 
ATOM     10  C   UNL     1      98.184 105.964  94.962  1.00  0.00    -0.007 C 
ATOM     11  C   UNL     1      96.609 106.846  91.754  1.00  0.00     0.010 A 
ATOM     12  C   UNL     1      96.373 106.459  90.444  1.00  0.00     0.046 A 
ATOM     13  C   UNL     1      95.282 108.405  90.822  1.00  0.00     0.087 A 
ATOM     14  C   UNL     1      97.967 104.910  92.095  1.00  0.00     0.009 A 
ATOM     15  C   UNL     1      96.915 105.286  89.916  1.00  0.00     0.027 A 
ATOM     16  C   UNL     1      97.717 104.519  90.772  1.00  0.00     0.003 A 
ATOM     17  H   UNL     1      95.230 107.421  88.938  1.00  0.00     0.166 HD
ENDROOT
BRANCH   6  18
ATOM     18  C   UNL     1      99.980 106.233  96.701  1.00  0.00     0.230 C 
ATOM     19  O   UNL     1     100.929 106.849  96.206  1.00  0.00    -0.274 OA
ATOM     20  N   UNL     1     100.192 105.242  97.666  1.00  0.00    -0.343 N 
BRANCH  20  21
ATOM     21  C   UNL     1     101.581 104.957  98.039  1.00  0.00     0.116 C 
ATOM     22  C   UNL     1     101.926 105.376  99.461  1.00  0.00     0.027 C 
ENDBRANCH  20  21
BRANCH  20  23
ATOM     23  C   UNL     1      99.154 104.358  98.204  1.00  0.00     0.116 C 
ATOM     24  C   UNL     1      99.295 102.916  97.740  1.00  0.00     0.027 C 
ENDBRANCH  20  23
ENDBRANCH   6  18
BRANCH   1  25
ATOM     25  C   UNL     1      95.933 108.546  96.323  1.00  0.00     0.112 C 
BRANCH  25  26
ATOM     26  C   UNL     1      95.869 109.185  97.681  1.00  0.00    -0.019 C 
ATOM     27  C   UNL     1      94.814 109.117  98.505  1.00  0.00     0.005 C 
ENDBRANCH  25  26
ENDBRANCH   1  25
TORSDOF 5
ENDMDL
MODEL 7
REMARK VINA RESULT:    -7.423      3.135      8.165
REMARK INTER + INTRA:         -10.503
REMARK INTER:                  -9.947
REMARK INTRA:                  -0.556
REMARK UNBOUND:                -0.910
REMARK SMILES C=CCN1C[C@H](C(=O)N(CC)CC)C=C2c3cccc4[nH]cc(c34)C[C@H]21
REMARK SMILES IDX 4 1 21 2 26 3 15 4 25 5 6 6 5 7 23 8 16 9 14 10 24 11 20 12
REMARK SMILES IDX 22 13 17 14 19 15 18 16 7 18 8 19 9 20 10 21 11 22 12 23
REMARK SMILES IDX 13 24 3 25 2 26 1 27
REMARK H PARENT 21 17
ROOT
ATOM      1  N   UNL     1      97.219 106.191  94.205  1.00  0.00    -0.291 NA
ATOM      2  N   UNL     1      94.407 111.025  96.478  1.00  0.00    -0.361 N 
ATOM      3  C   UNL     1      96.481 107.114  95.107  1.00  0.00     0.092 C 
ATOM      4  C   UNL     1      97.156 107.309  96.500  1.00  0.00    -0.026 C 
ATOM      5  C   UNL     1      95.966 108.415  94.387  1.00  0.00     0.061 C 
ATOM      6  C   UNL     1      98.600 105.285  96.136  1.00  0.00     0.116 C 
ATOM      7  C   UNL     1      97.688 105.000  94.928  1.00  0.00     0.103 C 
ATOM      8  C   UNL     1      95.400 109.382  95.365  1.00  0.00    -0.020 A 
ATOM      9  C   UNL     1      96.624 108.391  97.369  1.00  0.00    -0.011 A 
ATOM     10  C   UNL     1      98.131 106.482  96.933  1.00  0.00    -0.007 C 
ATOM     11  C   UNL     1      95.779 109.306  96.723  1.00  0.00     0.010 A 
ATOM     12  C   UNL     1      95.163 110.342  97.406  1.00  0.00     0.046 A 
ATOM     13  C   UNL     1      94.546 110.453  95.233  1.00  0.00     0.087 A 
ATOM     14  C   UNL     1      96.819 108.573  98.746  1.00  0.00     0.009 A 
ATOM     15  C   UNL     1      95.357 110.537  98.775  1.00  0.00     0.027 A 
ATOM     16  C   UNL     1      96.200 109.629  99.430  1.00  0.00     0.003 A 
ATOM     17  H   UNL     1      93.840 111.835  96.685  1.00  0.00     0.166 HD
ENDROOT
BRANCH   6  18
ATOM     18  C   UNL     1      98.644 104.022  97.020  1.00  0.00     0.230 C 
ATOM     19  O   UNL     1      97.778 103.147  96.915  1.00  0.00    -0.274 OA
ATOM     20  N   UNL     1      99.710 103.873  97.914  1.00  0.00    -0.343 N 
BRANCH  20  21
ATOM     21  C   UNL     1      99.738 102.654  98.727  1.00  0.00     0.116 C 
ATOM     22  C   UNL     1      99.722 102.923 100.225  1.00  0.00     0.027 C 
ENDBRANCH  20  21
BRANCH  20  23
ATOM     23  C   UNL     1     100.701 104.911  98.219  1.00  0.00     0.116 C 
ATOM     24  C   UNL     1     101.928 104.849  97.322  1.00  0.00     0.027 C 
ENDBRANCH  20  23
ENDBRANCH   6  18
BRANCH   1  25
ATOM     25  C   UNL     1      98.175 106.760  93.258  1.00  0.00     0.112 C 
BRANCH  25  26
ATOM     26  C   UNL     1      97.854 106.693  91.792  1.00  0.00    -0.019 C 
ATOM     27  C   UNL     1      97.461 105.584  91.149  1.00  0.00     0.005 C 
ENDBRANCH  25  26
ENDBRANCH   1  25
TORSDOF 5
ENDMDL
MODEL 8
REMARK VINA RESULT:    -7.383      3.651      5.797
REMARK INTER + INTRA:         -10.451
REMARK INTER:                  -9.710
REMARK INTRA:                  -0.741
REMARK UNBOUND:                -0.910
REMARK SMILES C=CCN1C[C@H](C(=O)N(CC)CC)C=C2c3cccc4[nH]cc(c34)C[C@H]21
REMARK SMILES IDX 4 1 21 2 26 3 15 4 25 5 6 6 5 7 23 8 16 9 14 10 24 11 20 12
REMARK SMILES IDX 22 13 17 14 19 15 18 16 7 18 8 19 9 20 10 21 11 22 12 23
REMARK SMILES IDX 13 24 3 25 2 26 1 27
REMARK H PARENT 21 17
ROOT
ATOM      1  N   UNL     1      97.586 108.165  95.944  1.00  0.00    -0.291 NA
ATOM      2  N   UNL     1      98.758 102.266  96.474  1.00  0.00    -0.361 N 
ATOM      3  C   UNL     1      98.226 106.867  96.284  1.00  0.00     0.092 C 
ATOM      4  C   UNL     1      98.523 106.686  97.804  1.00  0.00    -0.026 C 
ATOM      5  C   UNL     1      97.580 105.637  95.543  1.00  0.00     0.061 C 
ATOM      6  C   UNL     1      98.205 109.147  98.204  1.00  0.00     0.116 C 
ATOM      7  C   UNL     1      98.218 109.276  96.670  1.00  0.00     0.103 C 
ATOM      8  C   UNL     1      98.130 104.353  96.052  1.00  0.00    -0.020 A 
ATOM      9  C   UNL     1      98.936 105.335  98.263  1.00  0.00    -0.011 A 
ATOM     10  C   UNL     1      98.482 107.731  98.659  1.00  0.00    -0.007 C 
ATOM     11  C   UNL     1      98.722 104.305  97.334  1.00  0.00     0.010 A 
ATOM     12  C   UNL     1      99.100 102.997  97.591  1.00  0.00     0.046 A 
ATOM     13  C   UNL     1      98.164 103.079  95.533  1.00  0.00     0.087 A 
ATOM     14  C   UNL     1      99.551 104.979  99.472  1.00  0.00     0.009 A 
ATOM     15  C   UNL     1      99.706 102.631  98.794  1.00  0.00     0.027 A 
ATOM     16  C   UNL     1      99.922 103.652  99.730  1.00  0.00     0.003 A 
ATOM     17  H   UNL     1      98.915 101.274  96.368  1.00  0.00     0.166 HD
ENDROOT
BRANCH   6  18
ATOM     18  C   UNL     1      99.251 110.122  98.783  1.00  0.00     0.230 C 
ATOM     19  O   UNL     1     100.430 109.779  98.915  1.00  0.00    -0.274 OA
ATOM     20  N   UNL     1      98.839 111.418  99.115  1.00  0.00    -0.343 N 
BRANCH  20  21
ATOM     21  C   UNL     1      99.858 112.331  99.643  1.00  0.00     0.116 C 
ATOM     22  C   UNL     1     100.108 113.540  98.754  1.00  0.00     0.027 C 
ENDBRANCH  20  21
BRANCH  20  23
ATOM     23  C   UNL     1      97.446 111.877  99.134  1.00  0.00     0.116 C 
ATOM     24  C   UNL     1      96.678 111.408 100.361  1.00  0.00     0.027 C 
ENDBRANCH  20  23
ENDBRANCH   6  18
BRANCH   1  25
ATOM     25  C   UNL     1      96.129 108.223  95.865  1.00  0.00     0.112 C 
BRANCH  25  26
ATOM     26  C   UNL     1      95.504 108.921  94.691  1.00  0.00    -0.019 C 
ATOM     27  C   UNL     1      95.451 108.419  93.448  1.00  0.00     0.005 C 
ENDBRANCH  25  26
ENDBRANCH   1  25
TORSDOF 5
ENDMDL
MODEL 9
REMARK VINA RESULT:    -7.207      3.254      5.436
REMARK INTER + INTRA:         -10.223
REMARK INTER:                  -9.853
REMARK INTRA:                  -0.371
REMARK UNBOUND:                -0.910
REMARK SMILES C=CCN1C[C@H](C(=O)N(CC)CC)C=C2c3cccc4[nH]cc(c34)C[C@H]21
REMARK SMILES IDX 4 1 21 2 26 3 15 4 25 5 6 6 5 7 23 8 16 9 14 10 24 11 20 12
REMARK SMILES IDX 22 13 17 14 19 15 18 16 7 18 8 19 9 20 10 21 11 22 12 23
REMARK SMILES IDX 13 24 3 25 2 26 1 27
REMARK H PARENT 21 17
ROOT
ATOM      1  N   UNL     1      97.551 109.182  97.155  1.00  0.00    -0.291 NA
ATOM      2  N   UNL     1      99.707 104.298  99.974  1.00  0.00    -0.361 N 
ATOM      3  C   UNL     1      97.790 107.781  97.592  1.00  0.00     0.092 C 
ATOM      4  C   UNL     1      98.132 106.805  96.425  1.00  0.00    -0.026 C 
ATOM      5  C   UNL     1      98.682 107.671  98.885  1.00  0.00     0.061 C 
ATOM      6  C   UNL     1      97.295 108.464  94.732  1.00  0.00     0.116 C 
ATOM      7  C   UNL     1      96.725 109.228  95.941  1.00  0.00     0.103 C 
ATOM      8  C   UNL     1      99.041 106.256  99.171  1.00  0.00    -0.020 A 
ATOM      9  C   UNL     1      98.618 105.449  96.790  1.00  0.00    -0.011 A 
ATOM     10  C   UNL     1      97.922 107.147  95.136  1.00  0.00    -0.007 C 
ATOM     11  C   UNL     1      99.002 105.301  98.131  1.00  0.00     0.010 A 
ATOM     12  C   UNL     1      99.429 104.085  98.640  1.00  0.00     0.046 A 
ATOM     13  C   UNL     1      99.478 105.615 100.306  1.00  0.00     0.087 A 
ATOM     14  C   UNL     1      98.690 104.306  95.981  1.00  0.00     0.009 A 
ATOM     15  C   UNL     1      99.512 102.943  97.842  1.00  0.00     0.027 A 
ATOM     16  C   UNL     1      99.133 103.081  96.500  1.00  0.00     0.003 A 
ATOM     17  H   UNL     1     100.039 103.587 100.610  1.00  0.00     0.166 HD
ENDROOT
BRANCH   6  18
ATOM     18  C   UNL     1      96.155 108.239  93.717  1.00  0.00     0.230 C 
ATOM     19  O   UNL     1      95.003 108.607  93.969  1.00  0.00    -0.274 OA
ATOM     20  N   UNL     1      96.467 107.646  92.489  1.00  0.00    -0.343 N 
BRANCH  20  21
ATOM     21  C   UNL     1      95.369 107.464  91.535  1.00  0.00     0.116 C 
ATOM     22  C   UNL     1      95.633 108.097  90.176  1.00  0.00     0.027 C 
ENDBRANCH  20  21
BRANCH  20  23
ATOM     23  C   UNL     1      97.761 107.046  92.150  1.00  0.00     0.116 C 
ATOM     24  C   UNL     1      97.658 105.577  91.768  1.00  0.00     0.027 C 
ENDBRANCH  20  23
ENDBRANCH   6  18
BRANCH   1  25
ATOM     25  C   UNL     1      98.671 110.119  97.182  1.00  0.00     0.112 C 
BRANCH  25  26
ATOM     26  C   UNL     1      98.632 111.252  98.168  1.00  0.00    -0.019 C 
ATOM     27  C   UNL     1      97.755 111.351  99.178  1.00  0.00     0.005 C 
ENDBRANCH  25  26
ENDBRANCH   1  25
TORSDOF 5
ENDMDL
MODEL 10
REMARK VINA RESULT:    -7.122      3.926      6.270
REMARK INTER + INTRA:         -10.114
REMARK INTER:                  -9.552
REMARK INTRA:                  -0.561
REMARK UNBOUND:                -0.910
REMARK SMILES C=CCN1C[C@H](C(=O)N(CC)CC)C=C2c3cccc4[nH]cc(c34)C[C@H]21
REMARK SMILES IDX 4 1 21 2 26 3 15 4 25 5 6 6 5 7 23 8 16 9 14 10 24 11 20 12
REMARK SMILES IDX 22 13 17 14 19 15 18 16 7 18 8 19 9 20 10 21 11 22 12 23
REMARK SMILES IDX 13 24 3 25 2 26 1 27
REMARK H PARENT 21 17
ROOT
ATOM      1  N   UNL     1      96.534 107.008  96.721  1.00  0.00    -0.291 NA
ATOM      2  N   UNL     1     101.322 106.462 100.358  1.00  0.00    -0.361 N 
ATOM      3  C   UNL     1      97.843 106.603  97.299  1.00  0.00     0.092 C 
ATOM      4  C   UNL     1      99.056 106.844  96.348  1.00  0.00    -0.026 C 
ATOM      5  C   UNL     1      98.028 107.042  98.800  1.00  0.00     0.061 C 
ATOM      6  C   UNL     1      97.516 107.119  94.380  1.00  0.00     0.116 C 
ATOM      7  C   UNL     1      96.418 106.585  95.318  1.00  0.00     0.103 C 
ATOM      8  C   UNL     1      99.414 106.777  99.270  1.00  0.00    -0.020 A 
ATOM      9  C   UNL     1     100.416 106.696  96.927  1.00  0.00    -0.011 A 
ATOM     10  C   UNL     1      98.881 107.101  95.034  1.00  0.00    -0.007 C 
ATOM     11  C   UNL     1     100.460 106.653  98.329  1.00  0.00     0.010 A 
ATOM     12  C   UNL     1     101.647 106.467  99.019  1.00  0.00     0.046 A 
ATOM     13  C   UNL     1      99.968 106.654 100.523  1.00  0.00     0.087 A 
ATOM     14  C   UNL     1     101.635 106.545  96.251  1.00  0.00     0.009 A 
ATOM     15  C   UNL     1     102.867 106.324  98.356  1.00  0.00     0.027 A 
ATOM     16  C   UNL     1     102.835 106.367  96.955  1.00  0.00     0.003 A 
ATOM     17  H   UNL     1     101.987 106.343 101.109  1.00  0.00     0.166 HD
ENDROOT
BRANCH   6  18
ATOM     18  C   UNL     1      97.514 106.266  93.095  1.00  0.00     0.230 C 
ATOM     19  O   UNL     1      97.637 105.038  93.151  1.00  0.00    -0.274 OA
ATOM     20  N   UNL     1      97.329 106.914  91.869  1.00  0.00    -0.343 N 
BRANCH  20  21
ATOM     21  C   UNL     1      97.311 106.077  90.665  1.00  0.00     0.116 C 
ATOM     22  C   UNL     1      95.937 105.975  90.018  1.00  0.00     0.027 C 
ENDBRANCH  20  21
BRANCH  20  23
ATOM     23  C   UNL     1      97.321 108.368  91.680  1.00  0.00     0.116 C 
ATOM     24  C   UNL     1      98.106 108.818  90.457  1.00  0.00     0.027 C 
ENDBRANCH  20  23
ENDBRANCH   6  18
BRANCH   1  25
ATOM     25  C   UNL     1      96.031 108.348  97.011  1.00  0.00     0.112 C 
BRANCH  25  26
ATOM     26  C   UNL     1      95.067 108.517  98.151  1.00  0.00    -0.019 C 
ATOM     27  C   UNL     1      94.026 109.362  98.148  1.00  0.00     0.005 C 
ENDBRANCH  25  26
ENDBRANCH   1  25
TORSDOF 5
ENDMDL
MODEL 11
REMARK VINA RESULT:    -7.115      4.142      6.970
REMARK INTER + INTRA:         -10.105
REMARK INTER:                  -9.348
REMARK INTRA:                  -0.757
REMARK UNBOUND:                -0.910
REMARK SMILES C=CCN1C[C@H](C(=O)N(CC)CC)C=C2c3cccc4[nH]cc(c34)C[C@H]21
REMARK SMILES IDX 4 1 21 2 26 3 15 4 25 5 6 6 5 7 23 8 16 9 14 10 24 11 20 12
REMARK SMILES IDX 22 13 17 14 19 15 18 16 7 18 8 19 9 20 10 21 11 22 12 23
REMARK SMILES IDX 13 24 3 25 2 26 1 27
REMARK H PARENT 21 17
ROOT
ATOM      1  N   UNL     1      98.314 113.817  95.283  1.00  0.00    -0.291 NA
ATOM      2  N   UNL     1      93.676 110.121  96.415  1.00  0.00    -0.361 N 
ATOM      3  C   UNL     1      97.490 112.669  95.743  1.00  0.00     0.092 C 
ATOM      4  C   UNL     1      97.628 112.362  97.267  1.00  0.00    -0.026 C 
ATOM      5  C   UNL     1      96.029 112.670  95.157  1.00  0.00     0.061 C 
ATOM      6  C   UNL     1      99.707 113.768  97.407  1.00  0.00     0.116 C 
ATOM      7  C   UNL     1      99.662 113.774  95.868  1.00  0.00     0.103 C 
ATOM      8  C   UNL     1      95.195 111.612  95.787  1.00  0.00    -0.020 A 
ATOM      9  C   UNL     1      96.667 111.395  97.858  1.00  0.00    -0.011 A 
ATOM     10  C   UNL     1      98.627 112.892  98.004  1.00  0.00    -0.007 C 
ATOM     11  C   UNL     1      95.559 111.096  97.051  1.00  0.00     0.010 A 
ATOM     12  C   UNL     1      94.599 110.174  97.438  1.00  0.00     0.046 A 
ATOM     13  C   UNL     1      94.027 110.993  95.408  1.00  0.00     0.087 A 
ATOM     14  C   UNL     1      96.760 110.717  99.081  1.00  0.00     0.009 A 
ATOM     15  C   UNL     1      94.678 109.500  98.657  1.00  0.00     0.027 A 
ATOM     16  C   UNL     1      95.781 109.792  99.471  1.00  0.00     0.003 A 
ATOM     17  H   UNL     1      92.857 109.530  96.413  1.00  0.00     0.166 HD
ENDROOT
BRANCH   6  18
ATOM     18  C   UNL     1     101.105 113.291  97.849  1.00  0.00     0.230 C 
ATOM     19  O   UNL     1     101.677 112.372  97.254  1.00  0.00    -0.274 OA
ATOM     20  N   UNL     1     101.726 113.952  98.915  1.00  0.00    -0.343 N 
BRANCH  20  21
ATOM     21  C   UNL     1     103.064 113.491  99.302  1.00  0.00     0.116 C 
ATOM     22  C   UNL     1     103.047 112.404 100.367  1.00  0.00     0.027 C 
ENDBRANCH  20  21
BRANCH  20  23
ATOM     23  C   UNL     1     101.080 114.947  99.776  1.00  0.00     0.116 C 
ATOM     24  C   UNL     1     101.438 116.379  99.409  1.00  0.00     0.027 C 
ENDBRANCH  20  23
ENDBRANCH   6  18
BRANCH   1  25
ATOM     25  C   UNL     1      97.697 115.141  95.235  1.00  0.00     0.112 C 
BRANCH  25  26
ATOM     26  C   UNL     1      97.659 115.864  93.919  1.00  0.00    -0.019 C 
ATOM     27  C   UNL     1      96.650 116.647  93.511  1.00  0.00     0.005 C 
ENDBRANCH  25  26
ENDBRANCH   1  25
TORSDOF 5
ENDMDL
MODEL 12
REMARK VINA RESULT:    -7.095      3.190      5.784
REMARK INTER + INTRA:         -10.079
REMARK INTER:                  -9.258
REMARK INTRA:                  -0.821
REMARK UNBOUND:                -0.910
REMARK SMILES C=CCN1C[C@H](C(=O)N(CC)CC)C=C2c3cccc4[nH]cc(c34)C[C@H]21
REMARK SMILES IDX 4 1 21 2 26 3 15 4 25 5 6 6 5 7 23 8 16 9 14 10 24 11 20 12
REMARK SMILES IDX 22 13 17 14 19 15 18 16 7 18 8 19 9 20 10 21 11 22 12 23
REMARK SMILES IDX 13 24 3 25 2 26 1 27
REMARK H PARENT 21 17
ROOT
ATOM      1  N   UNL     1      98.099 107.233  95.087  1.00  0.00    -0.291 NA
ATOM      2  N   UNL     1     100.933 103.105  98.461  1.00  0.00    -0.361 N 
ATOM      3  C   UNL     1      98.865 106.565  96.173  1.00  0.00     0.092 C 
ATOM      4  C   UNL     1      98.260 106.775  97.595  1.00  0.00    -0.026 C 
ATOM      5  C   UNL     1      99.318 105.101  95.811  1.00  0.00     0.061 C 
ATOM      6  C   UNL     1      96.838 108.671  96.759  1.00  0.00     0.116 C 
ATOM      7  C   UNL     1      97.692 108.589  95.480  1.00  0.00     0.103 C 
ATOM      8  C   UNL     1      99.915 104.417  96.989  1.00  0.00    -0.020 A 
ATOM      9  C   UNL     1      98.815 105.953  98.701  1.00  0.00    -0.011 A 
ATOM     10  C   UNL     1      97.325 107.720  97.830  1.00  0.00    -0.007 C 
ATOM     11  C   UNL     1      99.608 104.870  98.291  1.00  0.00     0.010 A 
ATOM     12  C   UNL     1     100.239 104.038  99.201  1.00  0.00     0.046 A 
ATOM     13  C   UNL     1     100.740 103.323  97.114  1.00  0.00     0.087 A 
ATOM     14  C   UNL     1      98.688 106.156 100.082  1.00  0.00     0.009 A 
ATOM     15  C   UNL     1     100.112 104.227 100.579  1.00  0.00     0.027 A 
ATOM     16  C   UNL     1      99.321 105.305 100.999  1.00  0.00     0.003 A 
ATOM     17  H   UNL     1     101.495 102.364  98.855  1.00  0.00     0.166 HD
ENDROOT
BRANCH   6  18
ATOM     18  C   UNL     1      96.864 110.127  97.268  1.00  0.00     0.230 C 
ATOM     19  O   UNL     1      97.932 110.679  97.550  1.00  0.00    -0.274 OA
ATOM     20  N   UNL     1      95.651 110.820  97.361  1.00  0.00    -0.343 N 
BRANCH  20  21
ATOM     21  C   UNL     1      95.707 112.209  97.828  1.00  0.00     0.116 C 
ATOM     22  C   UNL     1      95.320 113.223  96.761  1.00  0.00     0.027 C 
ENDBRANCH  20  21
BRANCH  20  23
ATOM     23  C   UNL     1      94.325 110.217  97.192  1.00  0.00     0.116 C 
ATOM     24  C   UNL     1      93.855 109.449  98.418  1.00  0.00     0.027 C 
ENDBRANCH  20  23
ENDBRANCH   6  18
BRANCH   1  25
ATOM     25  C   UNL     1      97.086 106.460  94.374  1.00  0.00     0.112 C 
BRANCH  25  26
ATOM     26  C   UNL     1      96.918 106.692  92.900  1.00  0.00    -0.019 C 
ATOM     27  C   UNL     1      97.927 106.757  92.020  1.00  0.00     0.005 C 
ENDBRANCH  25  26
ENDBRANCH   1  25
TORSDOF 5
ENDMDL
MODEL 13
REMARK VINA RESULT:    -7.088      4.524      7.015
REMARK INTER + INTRA:         -10.070
REMARK INTER:                  -9.179
REMARK INTRA:                  -0.891
REMARK UNBOUND:                -0.910
REMARK SMILES C=CCN1C[C@H](C(=O)N(CC)CC)C=C2c3cccc4[nH]cc(c34)C[C@H]21
REMARK SMILES IDX 4 1 21 2 26 3 15 4 25 5 6 6 5 7 23 8 16 9 14 10 24 11 20 12
REMARK SMILES IDX 22 13 17 14 19 15 18 16 7 18 8 19 9 20 10 21 11 22 12 23
REMARK SMILES IDX 13 24 3 25 2 26 1 27
REMARK H PARENT 21 17
ROOT
ATOM      1  N   UNL     1      99.192 105.691  96.107  1.00  0.00    -0.291 NA
ATOM      2  N   UNL     1      99.931 101.565 100.453  1.00  0.00    -0.361 N 
ATOM      3  C   UNL     1      99.622 104.992  97.347  1.00  0.00     0.092 C 
ATOM      4  C   UNL     1      99.310 105.778  98.657  1.00  0.00    -0.026 C 
ATOM      5  C   UNL     1      99.279 103.455  97.351  1.00  0.00     0.061 C 
ATOM      6  C   UNL     1      98.921 107.890  97.350  1.00  0.00     0.116 C 
ATOM      7  C   UNL     1      99.524 107.122  96.160  1.00  0.00     0.103 C 
ATOM      8  C   UNL     1      99.562 102.845  98.678  1.00  0.00    -0.020 A 
ATOM      9  C   UNL     1      99.484 105.056  99.944  1.00  0.00    -0.011 A 
ATOM     10  C   UNL     1      98.970 107.085  98.630  1.00  0.00    -0.007 C 
ATOM     11  C   UNL     1      99.617 103.664  99.827  1.00  0.00     0.010 A 
ATOM     12  C   UNL     1      99.837 102.855 100.929  1.00  0.00     0.046 A 
ATOM     13  C   UNL     1      99.762 101.546  99.085  1.00  0.00     0.087 A 
ATOM     14  C   UNL     1      99.580 105.595 101.235  1.00  0.00     0.009 A 
ATOM     15  C   UNL     1      99.927 103.380 102.220  1.00  0.00     0.027 A 
ATOM     16  C   UNL     1      99.794 104.769 102.348  1.00  0.00     0.003 A 
ATOM     17  H   UNL     1     100.094 100.751 101.029  1.00  0.00     0.166 HD
ENDROOT
BRANCH   6  18
ATOM     18  C   UNL     1      99.689 109.218  97.510  1.00  0.00     0.230 C 
ATOM     19  O   UNL     1     100.889 109.224  97.805  1.00  0.00    -0.274 OA
ATOM     20  N   UNL     1      99.003 110.415  97.271  1.00  0.00    -0.343 N 
BRANCH  20  21
ATOM     21  C   UNL     1      99.762 111.661  97.410  1.00  0.00     0.116 C 
ATOM     22  C   UNL     1      99.024 112.737  98.193  1.00  0.00     0.027 C 
ENDBRANCH  20  21
BRANCH  20  23
ATOM     23  C   UNL     1      97.556 110.525  97.061  1.00  0.00     0.116 C 
ATOM     24  C   UNL     1      97.171 110.642  95.595  1.00  0.00     0.027 C 
ENDBRANCH  20  23
ENDBRANCH   6  18
BRANCH   1  25
ATOM     25  C   UNL     1      97.877 105.377  95.553  1.00  0.00     0.112 C 
BRANCH  25  26
ATOM     26  C   UNL     1      97.547 105.873  94.174  1.00  0.00    -0.019 C 
ATOM     27  C   UNL     1      96.686 106.865  93.908  1.00  0.00     0.005 C 
ENDBRANCH  25  26
ENDBRANCH   1  25
TORSDOF 5
ENDMDL
MODEL 14
REMARK VINA RESULT:    -7.078      4.222      8.101
REMARK INTER + INTRA:         -10.056
REMARK INTER:                  -9.614
REMARK INTRA:                  -0.442
REMARK UNBOUND:                -0.910
REMARK SMILES C=CCN1C[C@H](C(=O)N(CC)CC)C=C2c3cccc4[nH]cc(c34)C[C@H]21
REMARK SMILES IDX 4 1 21 2 26 3 15 4 25 5 6 6 5 7 23 8 16 9 14 10 24 11 20 12
REMARK SMILES IDX 22 13 17 14 19 15 18 16 7 18 8 19 9 20 10 21 11 22 12 23
REMARK SMILES IDX 13 24 3 25 2 26 1 27
REMARK H PARENT 21 17
ROOT
ATOM      1  N   UNL     1      97.742 104.455  96.085  1.00  0.00    -0.291 NA
ATOM      2  N   UNL     1      95.803 109.905  94.355  1.00  0.00    -0.361 N 
ATOM      3  C   UNL     1      97.327 105.883  96.083  1.00  0.00     0.092 C 
ATOM      4  C   UNL     1      98.405 106.855  96.655  1.00  0.00    -0.026 C 
ATOM      5  C   UNL     1      96.617 106.328  94.750  1.00  0.00     0.061 C 
ATOM      6  C   UNL     1      99.655 104.934  97.687  1.00  0.00     0.116 C 
ATOM      7  C   UNL     1      98.409 104.096  97.344  1.00  0.00     0.103 C 
ATOM      8  C   UNL     1      96.390 107.797  94.726  1.00  0.00    -0.020 A 
ATOM      9  C   UNL     1      98.177 108.311  96.470  1.00  0.00    -0.011 A 
ATOM     10  C   UNL     1      99.464 106.398  97.357  1.00  0.00    -0.007 C 
ATOM     11  C   UNL     1      97.176 108.639  95.543  1.00  0.00     0.010 A 
ATOM     12  C   UNL     1      96.809 109.952  95.296  1.00  0.00     0.046 A 
ATOM     13  C   UNL     1      95.542 108.600  93.999  1.00  0.00     0.087 A 
ATOM     14  C   UNL     1      98.795 109.378  97.138  1.00  0.00     0.009 A 
ATOM     15  C   UNL     1      97.423 111.022  95.950  1.00  0.00     0.027 A 
ATOM     16  C   UNL     1      98.425 110.705  96.877  1.00  0.00     0.003 A 
ATOM     17  H   UNL     1      95.332 110.715  93.978  1.00  0.00     0.166 HD
ENDROOT
BRANCH   6  18
ATOM     18  C   UNL     1      99.968 104.747  99.185  1.00  0.00     0.230 C 
ATOM     19  O   UNL     1      99.079 104.435  99.984  1.00  0.00    -0.274 OA
ATOM     20  N   UNL     1     101.293 104.898  99.610  1.00  0.00    -0.343 N 
BRANCH  20  21
ATOM     21  C   UNL     1     101.567 104.694 101.036  1.00  0.00     0.116 C 
ATOM     22  C   UNL     1     101.138 105.865 101.910  1.00  0.00     0.027 C 
ENDBRANCH  20  21
BRANCH  20  23
ATOM     23  C   UNL     1     102.389 105.406  98.779  1.00  0.00     0.116 C 
ATOM     24  C   UNL     1     102.564 106.914  98.872  1.00  0.00     0.027 C 
ENDBRANCH  20  23
ENDBRANCH   6  18
BRANCH   1  25
ATOM     25  C   UNL     1      98.354 103.907  94.878  1.00  0.00     0.112 C 
BRANCH  25  26
ATOM     26  C   UNL     1      98.727 102.452  94.863  1.00  0.00    -0.019 C 
ATOM     27  C   UNL     1      98.745 101.682  93.766  1.00  0.00     0.005 C 
ENDBRANCH  25  26
ENDBRANCH   1  25
TORSDOF 5
ENDMDL
MODEL 15
REMARK VINA RESULT:    -7.064      2.573      7.366
REMARK INTER + INTRA:         -10.039
REMARK INTER:                  -9.310
REMARK INTRA:                  -0.728
REMARK UNBOUND:                -0.910
REMARK SMILES C=CCN1C[C@H](C(=O)N(CC)CC)C=C2c3cccc4[nH]cc(c34)C[C@H]21
REMARK SMILES IDX 4 1 21 2 26 3 15 4 25 5 6 6 5 7 23 8 16 9 14 10 24 11 20 12
REMARK SMILES IDX 22 13 17 14 19 15 18 16 7 18 8 19 9 20 10 21 11 22 12 23
REMARK SMILES IDX 13 24 3 25 2 26 1 27
REMARK H PARENT 21 17
ROOT
ATOM      1  N   UNL     1      95.145 111.038  95.881  1.00  0.00    -0.291 NA
ATOM      2  N   UNL     1      94.313 116.443  93.323  1.00  0.00    -0.361 N 
ATOM      3  C   UNL     1      95.227 112.487  95.559  1.00  0.00     0.092 C 
ATOM      4  C   UNL     1      96.678 112.994  95.293  1.00  0.00    -0.026 C 
ATOM      5  C   UNL     1      94.117 112.969  94.551  1.00  0.00     0.061 C 
ATOM      6  C   UNL     1      97.642 110.919  96.332  1.00  0.00     0.116 C 
ATOM      7  C   UNL     1      96.207 110.639  96.815  1.00  0.00     0.103 C 
ATOM      8  C   UNL     1      94.354 114.373  94.122  1.00  0.00    -0.020 A 
ATOM      9  C   UNL     1      96.830 114.361  94.731  1.00  0.00    -0.011 A 
ATOM     10  C   UNL     1      97.755 112.254  95.629  1.00  0.00    -0.007 C 
ATOM     11  C   UNL     1      95.650 114.926  94.224  1.00  0.00     0.010 A 
ATOM     12  C   UNL     1      95.615 116.214  93.713  1.00  0.00     0.046 A 
ATOM     13  C   UNL     1      93.538 115.329  93.563  1.00  0.00     0.087 A 
ATOM     14  C   UNL     1      97.980 115.162  94.696  1.00  0.00     0.009 A 
ATOM     15  C   UNL     1      96.757 117.016  93.665  1.00  0.00     0.027 A 
ATOM     16  C   UNL     1      97.941 116.461  94.169  1.00  0.00     0.003 A 
ATOM     17  H   UNL     1      93.981 117.304  92.912  1.00  0.00     0.166 HD
ENDROOT
BRANCH   6  18
ATOM     18  C   UNL     1      98.585 110.860  97.551  1.00  0.00     0.230 C 
ATOM     19  O   UNL     1      98.770 111.857  98.256  1.00  0.00    -0.274 OA
ATOM     20  N   UNL     1      99.194 109.639  97.861  1.00  0.00    -0.343 N 
BRANCH  20  21
ATOM     21  C   UNL     1     100.070 109.606  99.037  1.00  0.00     0.116 C 
ATOM     22  C   UNL     1     100.964 108.376  99.093  1.00  0.00     0.027 C 
ENDBRANCH  20  21
BRANCH  20  23
ATOM     23  C   UNL     1      99.159 108.443  97.013  1.00  0.00     0.116 C 
ATOM     24  C   UNL     1      98.048 107.474  97.389  1.00  0.00     0.027 C 
ENDBRANCH  20  23
ENDBRANCH   6  18
BRANCH   1  25
ATOM     25  C   UNL     1      94.885 110.097  94.794  1.00  0.00     0.112 C 
BRANCH  25  26
ATOM     26  C   UNL     1      95.669 108.816  94.756  1.00  0.00    -0.019 C 
ATOM     27  C   UNL     1      96.211 108.289  93.649  1.00  0.00     0.005 C 
ENDBRANCH  25  26
ENDBRANCH   1  25
TORSDOF 5
ENDMDL
MODEL 16
REMARK VINA RESULT:    -7.046      1.687      1.941
REMARK INTER + INTRA:         -10.016
REMARK INTER:                  -9.291
REMARK INTRA:                  -0.725
REMARK UNBOUND:                -0.910
REMARK SMILES C=CCN1C[C@H](C(=O)N(CC)CC)C=C2c3cccc4[nH]cc(c34)C[C@H]21
REMARK SMILES IDX 4 1 21 2 26 3 15 4 25 5 6 6 5 7 23 8 16 9 14 10 24 11 20 12
REMARK SMILES IDX 22 13 17 14 19 15 18 16 7 18 8 19 9 20 10 21 11 22 12 23
REMARK SMILES IDX 13 24 3 25 2 26 1 27
REMARK H PARENT 21 17
ROOT
ATOM      1  N   UNL     1      97.141 111.559  97.543  1.00  0.00    -0.291 NA
ATOM      2  N   UNL     1      98.567 105.942  95.851  1.00  0.00    -0.361 N 
ATOM      3  C   UNL     1      97.122 110.220  96.898  1.00  0.00     0.092 C 
ATOM      4  C   UNL     1      97.024 110.269  95.342  1.00  0.00    -0.026 C 
ATOM      5  C   UNL     1      98.174 109.217  97.505  1.00  0.00     0.061 C 
ATOM      6  C   UNL     1      96.313 112.678  95.418  1.00  0.00     0.116 C 
ATOM      7  C   UNL     1      96.151 112.458  96.933  1.00  0.00     0.103 C 
ATOM      8  C   UNL     1      98.241 107.962  96.709  1.00  0.00    -0.020 A 
ATOM      9  C   UNL     1      97.241 108.997  94.604  1.00  0.00    -0.011 A 
ATOM     10  C   UNL     1      96.680 111.402  94.693  1.00  0.00    -0.007 C 
ATOM     11  C   UNL     1      97.805 107.962  95.365  1.00  0.00     0.010 A 
ATOM     12  C   UNL     1      98.023 106.700  94.837  1.00  0.00     0.046 A 
ATOM     13  C   UNL     1      98.708 106.700  96.993  1.00  0.00     0.087 A 
ATOM     14  C   UNL     1      96.908 108.697  93.276  1.00  0.00     0.009 A 
ATOM     15  C   UNL     1      97.702 106.393  93.513  1.00  0.00     0.027 A 
ATOM     16  C   UNL     1      97.140 107.420  92.744  1.00  0.00     0.003 A 
ATOM     17  H   UNL     1      98.831 104.971  95.762  1.00  0.00     0.166 HD
ENDROOT
BRANCH   6  18
ATOM     18  C   UNL     1      94.995 113.261  94.868  1.00  0.00     0.230 C 
ATOM     19  O   UNL     1      93.973 112.570  94.814  1.00  0.00    -0.274 OA
ATOM     20  N   UNL     1      94.977 114.602  94.471  1.00  0.00    -0.343 N 
BRANCH  20  21
ATOM     21  C   UNL     1      93.706 115.136  93.971  1.00  0.00     0.116 C 
ATOM     22  C   UNL     1      92.855 115.788  95.051  1.00  0.00     0.027 C 
ENDBRANCH  20  21
BRANCH  20  23
ATOM     23  C   UNL     1      96.160 115.461  94.357  1.00  0.00     0.116 C 
ATOM     24  C   UNL     1      96.386 116.335  95.582  1.00  0.00     0.027 C 
ENDBRANCH  20  23
ENDBRANCH   6  18
BRANCH   1  25
ATOM     25  C   UNL     1      98.434 112.168  97.843  1.00  0.00     0.112 C 
BRANCH  25  26
ATOM     26  C   UNL     1      98.699 112.626  99.249  1.00  0.00    -0.019 C 
ATOM     27  C   UNL     1      99.764 113.348  99.626  1.00  0.00     0.005 C 
ENDBRANCH  25  26
ENDBRANCH   1  25
TORSDOF 5
ENDMDL
MODEL 17
REMARK VINA RESULT:    -7.028      3.151      4.379
REMARK INTER + INTRA:          -9.992
REMARK INTER:                  -9.124
REMARK INTRA:                  -0.868
REMARK UNBOUND:                -0.910
REMARK SMILES C=CCN1C[C@H](C(=O)N(CC)CC)C=C2c3cccc4[nH]cc(c34)C[C@H]21
REMARK SMILES IDX 4 1 21 2 26 3 15 4 25 5 6 6 5 7 23 8 16 9 14 10 24 11 20 12
REMARK SMILES IDX 22 13 17 14 19 15 18 16 7 18 8 19 9 20 10 21 11 22 12 23
REMARK SMILES IDX 13 24 3 25 2 26 1 27
REMARK H PARENT 21 17
ROOT
ATOM      1  N   UNL     1      98.803 108.963  98.833  1.00  0.00    -0.291 NA
ATOM      2  N   UNL     1     100.155 103.082  99.026  1.00  0.00    -0.361 N 
ATOM      3  C   UNL     1      98.716 107.480  98.764  1.00  0.00     0.092 C 
ATOM      4  C   UNL     1      98.201 106.940  97.394  1.00  0.00    -0.026 C 
ATOM      5  C   UNL     1      99.966 106.750  99.383  1.00  0.00     0.061 C 
ATOM      6  C   UNL     1      97.352 109.220  96.763  1.00  0.00     0.116 C 
ATOM      7  C   UNL     1      97.619 109.594  98.233  1.00  0.00     0.103 C 
ATOM      8  C   UNL     1      99.915 105.286  99.125  1.00  0.00    -0.020 A 
ATOM      9  C   UNL     1      98.311 105.478  97.153  1.00  0.00    -0.011 A 
ATOM     10  C   UNL     1      97.610 107.753  96.494  1.00  0.00    -0.007 C 
ATOM     11  C   UNL     1      99.137 104.791  98.056  1.00  0.00     0.010 A 
ATOM     12  C   UNL     1      99.302 103.416  97.996  1.00  0.00     0.046 A 
ATOM     13  C   UNL     1     100.538 104.211  99.717  1.00  0.00     0.087 A 
ATOM     14  C   UNL     1      97.659 104.708  96.180  1.00  0.00     0.009 A 
ATOM     15  C   UNL     1      98.664 102.641  97.027  1.00  0.00     0.027 A 
ATOM     16  C   UNL     1      97.838 103.318  96.119  1.00  0.00     0.003 A 
ATOM     17  H   UNL     1     100.461 102.142  99.235  1.00  0.00     0.166 HD
ENDROOT
BRANCH   6  18
ATOM     18  C   UNL     1      95.894 109.591  96.424  1.00  0.00     0.230 C 
ATOM     19  O   UNL     1      94.968 108.816  96.685  1.00  0.00    -0.274 OA
ATOM     20  N   UNL     1      95.643 110.843  95.853  1.00  0.00    -0.343 N 
BRANCH  20  21
ATOM     21  C   UNL     1      94.246 111.178  95.560  1.00  0.00     0.116 C 
ATOM     22  C   UNL     1      94.090 112.394  94.658  1.00  0.00     0.027 C 
ENDBRANCH  20  21
BRANCH  20  23
ATOM     23  C   UNL     1      96.674 111.769  95.372  1.00  0.00     0.116 C 
ATOM     24  C   UNL     1      97.086 112.798  96.414  1.00  0.00     0.027 C 
ENDBRANCH  20  23
ENDBRANCH   6  18
BRANCH   1  25
ATOM     25  C   UNL     1     100.077 109.601  98.514  1.00  0.00     0.112 C 
BRANCH  25  26
ATOM     26  C   UNL     1     100.132 111.101  98.459  1.00  0.00    -0.019 C 
ATOM     27  C   UNL     1     100.569 111.809  97.408  1.00  0.00     0.005 C 
ENDBRANCH  25  26
ENDBRANCH   1  25
TORSDOF 5
ENDMDL
MODEL 18
REMARK VINA RESULT:    -7.010      2.844      7.373
REMARK INTER + INTRA:          -9.969
REMARK INTER:                  -9.184
REMARK INTRA:                  -0.785
REMARK UNBOUND:                -0.910
REMARK SMILES C=CCN1C[C@H](C(=O)N(CC)CC)C=C2c3cccc4[nH]cc(c34)C[C@H]21
REMARK SMILES IDX 4 1 21 2 26 3 15 4 25 5 6 6 5 7 23 8 16 9 14 10 24 11 20 12
REMARK SMILES IDX 22 13 17 14 19 15 18 16 7 18 8 19 9 20 10 21 11 22 12 23
REMARK SMILES IDX 13 24 3 25 2 26 1 27
REMARK H PARENT 21 17
ROOT
ATOM      1  N   UNL     1      95.479 109.138  95.602  1.00  0.00    -0.291 NA
ATOM      2  N   UNL     1      96.326 115.096  95.120  1.00  0.00    -0.361 N 
ATOM      3  C   UNL     1      95.865 110.547  95.878  1.00  0.00     0.092 C 
ATOM      4  C   UNL     1      97.375 110.732  96.223  1.00  0.00    -0.026 C 
ATOM      5  C   UNL     1      95.245 111.578  94.862  1.00  0.00     0.061 C 
ATOM      6  C   UNL     1      97.630 108.266  96.634  1.00  0.00     0.116 C 
ATOM      7  C   UNL     1      96.092 108.218  96.570  1.00  0.00     0.103 C 
ATOM      8  C   UNL     1      95.805 112.940  95.069  1.00  0.00    -0.020 A 
ATOM      9  C   UNL     1      97.897 112.122  96.276  1.00  0.00    -0.011 A 
ATOM     10  C   UNL     1      98.160 109.680  96.538  1.00  0.00    -0.007 C 
ATOM     11  C   UNL     1      97.051 113.092  95.716  1.00  0.00     0.010 A 
ATOM     12  C   UNL     1      97.371 114.440  95.733  1.00  0.00     0.046 A 
ATOM     13  C   UNL     1      95.369 114.194  94.708  1.00  0.00     0.087 A 
ATOM     14  C   UNL     1      99.089 112.580  96.854  1.00  0.00     0.009 A 
ATOM     15  C   UNL     1      98.559 114.906  96.299  1.00  0.00     0.027 A 
ATOM     16  C   UNL     1      99.412 113.945  96.859  1.00  0.00     0.003 A 
ATOM     17  H   UNL     1      96.276 116.096  94.986  1.00  0.00     0.166 HD
ENDROOT
BRANCH   6  18
ATOM     18  C   UNL     1      98.083 107.600  97.949  1.00  0.00     0.230 C 
ATOM     19  O   UNL     1      97.593 107.940  99.031  1.00  0.00    -0.274 OA
ATOM     20  N   UNL     1      99.031 106.573  97.882  1.00  0.00    -0.343 N 
BRANCH  20  21
ATOM     21  C   UNL     1      99.428 105.943  99.145  1.00  0.00     0.116 C 
ATOM     22  C   UNL     1      99.467 104.424  99.079  1.00  0.00     0.027 C 
ENDBRANCH  20  21
BRANCH  20  23
ATOM     23  C   UNL     1      99.777 106.197  96.677  1.00  0.00     0.116 C 
ATOM     24  C   UNL     1     101.100 106.934  96.536  1.00  0.00     0.027 C 
ENDBRANCH  20  23
ENDBRANCH   6  18
BRANCH   1  25
ATOM     25  C   UNL     1      95.479 108.675  94.217  1.00  0.00     0.112 C 
BRANCH  25  26
ATOM     26  C   UNL     1      96.785 108.642  93.475  1.00  0.00    -0.019 C 
ATOM     27  C   UNL     1      97.326 107.540  92.936  1.00  0.00     0.005 C 
ENDBRANCH  25  26
ENDBRANCH   1  25
TORSDOF 5
ENDMDL
MODEL 19
REMARK VINA RESULT:    -6.975      3.155      5.017
REMARK INTER + INTRA:          -9.924
REMARK INTER:                  -9.164
REMARK INTRA:                  -0.759
REMARK UNBOUND:                -0.910
REMARK SMILES C=CCN1C[C@H](C(=O)N(CC)CC)C=C2c3cccc4[nH]cc(c34)C[C@H]21
REMARK SMILES IDX 4 1 21 2 26 3 15 4 25 5 6 6 5 7 23 8 16 9 14 10 24 11 20 12
REMARK SMILES IDX 22 13 17 14 19 15 18 16 7 18 8 19 9 20 10 21 11 22 12 23
REMARK SMILES IDX 13 24 3 25 2 26 1 27
REMARK H PARENT 21 17
ROOT
ATOM      1  N   UNL     1      96.065 110.454  95.697  1.00  0.00    -0.291 NA
ATOM      2  N   UNL     1     100.613 109.685  99.593  1.00  0.00    -0.361 N 
ATOM      3  C   UNL     1      97.321 110.637  96.472  1.00  0.00     0.092 C 
ATOM      4  C   UNL     1      97.422 112.016  97.195  1.00  0.00    -0.026 C 
ATOM      5  C   UNL     1      97.728 109.371  97.314  1.00  0.00     0.061 C 
ATOM      6  C   UNL     1      95.557 112.942  95.787  1.00  0.00     0.116 C 
ATOM      7  C   UNL     1      95.725 111.667  94.940  1.00  0.00     0.103 C 
ATOM      8  C   UNL     1      98.880 109.666  98.207  1.00  0.00    -0.020 A 
ATOM      9  C   UNL     1      98.521 112.190  98.180  1.00  0.00    -0.011 A 
ATOM     10  C   UNL     1      96.595 113.036  96.885  1.00  0.00    -0.007 C 
ATOM     11  C   UNL     1      99.158 111.002  98.571  1.00  0.00     0.010 A 
ATOM     12  C   UNL     1     100.234 111.002  99.444  1.00  0.00     0.046 A 
ATOM     13  C   UNL     1      99.795 108.864  98.849  1.00  0.00     0.087 A 
ATOM     14  C   UNL     1      99.023 113.384  98.718  1.00  0.00     0.009 A 
ATOM     15  C   UNL     1     100.737 112.183  99.991  1.00  0.00     0.027 A 
ATOM     16  C   UNL     1     100.106 113.376  99.608  1.00  0.00     0.003 A 
ATOM     17  H   UNL     1     101.378 109.371 100.173  1.00  0.00     0.166 HD
ENDROOT
BRANCH   6  18
ATOM     18  C   UNL     1      95.640 114.163  94.849  1.00  0.00     0.230 C 
ATOM     19  O   UNL     1      96.685 114.429  94.248  1.00  0.00    -0.274 OA
ATOM     20  N   UNL     1      94.489 114.938  94.665  1.00  0.00    -0.343 N 
BRANCH  20  21
ATOM     21  C   UNL     1      94.589 116.081  93.752  1.00  0.00     0.116 C 
ATOM     22  C   UNL     1      93.622 116.008  92.580  1.00  0.00     0.027 C 
ENDBRANCH  20  21
BRANCH  20  23
ATOM     23  C   UNL     1      93.250 114.798  95.437  1.00  0.00     0.116 C 
ATOM     24  C   UNL     1      93.130 115.809  96.567  1.00  0.00     0.027 C 
ENDBRANCH  20  23
ENDBRANCH   6  18
BRANCH   1  25
ATOM     25  C   UNL     1      94.939 109.789  96.345  1.00  0.00     0.112 C 
BRANCH  25  26
ATOM     26  C   UNL     1      94.545 110.232  97.725  1.00  0.00    -0.019 C 
ATOM     27  C   UNL     1      94.202 109.403  98.722  1.00  0.00     0.005 C 
ENDBRANCH  25  26
ENDBRANCH   1  25
TORSDOF 5
ENDMDL
MODEL 20
REMARK VINA RESULT:    -6.915      2.928      7.689
REMARK INTER + INTRA:          -9.846
REMARK INTER:                  -9.010
REMARK INTRA:                  -0.836
REMARK UNBOUND:                -0.910
REMARK SMILES C=CCN1C[C@H](C(=O)N(CC)CC)C=C2c3cccc4[nH]cc(c34)C[C@H]21
REMARK SMILES IDX 4 1 21 2 26 3 15 4 25 5 6 6 5 7 23 8 16 9 14 10 24 11 20 12
REMARK SMILES IDX 22 13 17 14 19 15 18 16 7 18 8 19 9 20 10 21 11 22 12 23
REMARK SMILES IDX 13 24 3 25 2 26 1 27
REMARK H PARENT 21 17
ROOT
ATOM      1  N   UNL     1      95.941 108.163  95.584  1.00  0.00    -0.291 NA
ATOM      2  N   UNL     1      96.553 114.169  95.642  1.00  0.00    -0.361 N 
ATOM      3  C   UNL     1      96.261 109.556  95.992  1.00  0.00     0.092 C 
ATOM      4  C   UNL     1      97.752 109.770  96.399  1.00  0.00    -0.026 C 
ATOM      5  C   UNL     1      95.627 110.647  95.050  1.00  0.00     0.061 C 
ATOM      6  C   UNL     1      98.098 107.289  96.604  1.00  0.00     0.116 C 
ATOM      7  C   UNL     1      96.566 107.187  96.488  1.00  0.00     0.103 C 
ATOM      8  C   UNL     1      96.124 112.006  95.390  1.00  0.00    -0.020 A 
ATOM      9  C   UNL     1      98.214 111.169  96.587  1.00  0.00    -0.011 A 
ATOM     10  C   UNL     1      98.570 108.725  96.647  1.00  0.00    -0.007 C 
ATOM     11  C   UNL     1      97.344 112.151  96.087  1.00  0.00     0.010 A 
ATOM     12  C   UNL     1      97.607 113.503  96.230  1.00  0.00     0.046 A 
ATOM     13  C   UNL     1      95.647 113.269  95.125  1.00  0.00     0.087 A 
ATOM     14  C   UNL     1      99.369 111.621  97.240  1.00  0.00     0.009 A 
ATOM     15  C   UNL     1      98.759 113.964  96.870  1.00  0.00     0.027 A 
ATOM     16  C   UNL     1      99.635 112.992  97.373  1.00  0.00     0.003 A 
ATOM     17  H   UNL     1      96.466 115.174  95.594  1.00  0.00     0.166 HD
ENDROOT
BRANCH   6  18
ATOM     18  C   UNL     1      98.541 106.529  97.871  1.00  0.00     0.230 C 
ATOM     19  O   UNL     1      98.600 107.102  98.963  1.00  0.00    -0.274 OA
ATOM     20  N   UNL     1      98.833 105.165  97.759  1.00  0.00    -0.343 N 
BRANCH  20  21
ATOM     21  C   UNL     1      99.232 104.462  98.983  1.00  0.00     0.116 C 
ATOM     22  C   UNL     1     100.543 103.702  98.846  1.00  0.00     0.027 C 
ENDBRANCH  20  21
BRANCH  20  23
ATOM     23  C   UNL     1      98.935 104.429  96.495  1.00  0.00     0.116 C 
ATOM     24  C   UNL     1      97.720 103.559  96.208  1.00  0.00     0.027 C 
ENDBRANCH  20  23
ENDBRANCH   6  18
BRANCH   1  25
ATOM     25  C   UNL     1      96.000 107.823  94.165  1.00  0.00     0.112 C 
BRANCH  25  26
ATOM     26  C   UNL     1      96.778 106.606  93.753  1.00  0.00    -0.019 C 
ATOM     27  C   UNL     1      97.823 106.620  92.913  1.00  0.00     0.005 C 
ENDBRANCH  25  26
ENDBRANCH   1  25
TORSDOF 5
ENDMDL
