MODEL 1
REMARK VINA RESULT:    -8.214      0.000      0.000
REMARK INTER + INTRA:         -11.144
REMARK INTER:                 -10.615
REMARK INTRA:                  -0.529
REMARK UNBOUND:                -0.529
REMARK SMILES C=CCN1C[C@H](C(=O)N(CC)CC)C=C2c3cccc4[nH]cc(c34)C[C@H]21
REMARK SMILES IDX 4 1 21 2 26 3 15 4 25 5 6 6 5 7 23 8 16 9 14 10 24 11 20 12
REMARK SMILES IDX 22 13 17 14 19 15 18 16 7 18 8 19 9 20 10 21 11 22 12 23
REMARK SMILES IDX 13 24 3 25 2 26 1 27
REMARK H PARENT 21 17
ROOT
ATOM      1  N   UNL     1     104.508 118.109 110.270  1.00  0.00    -0.291 NA
ATOM      2  N   UNL     1     101.007 122.370 112.730  1.00  0.00    -0.361 N 
ATOM      3  C   UNL     1     103.337 118.942 110.655  1.00  0.00     0.092 C 
ATOM      4  C   UNL     1     102.169 118.132 111.297  1.00  0.00    -0.026 C 
ATOM      5  C   UNL     1     103.733 120.289 111.367  1.00  0.00     0.061 C 
ATOM      6  C   UNL     1     103.147 115.973 110.460  1.00  0.00     0.116 C 
ATOM      7  C   UNL     1     104.083 116.861 109.620  1.00  0.00     0.103 C 
ATOM      8  C   UNL     1     102.533 120.992 111.892  1.00  0.00    -0.020 A 
ATOM      9  C   UNL     1     101.068 118.905 111.927  1.00  0.00    -0.011 A 
ATOM     10  C   UNL     1     102.118 116.785 111.216  1.00  0.00    -0.007 C 
ATOM     11  C   UNL     1     101.348 120.264 112.141  1.00  0.00     0.010 A 
ATOM     12  C   UNL     1     100.407 121.130 112.673  1.00  0.00     0.046 A 
ATOM     13  C   UNL     1     102.301 122.297 112.262  1.00  0.00     0.087 A 
ATOM     14  C   UNL     1      99.787 118.460 112.280  1.00  0.00     0.009 A 
ATOM     15  C   UNL     1      99.131 120.696 113.035  1.00  0.00     0.027 A 
ATOM     16  C   UNL     1      98.842 119.340 112.827  1.00  0.00     0.003 A 
ATOM     17  H   UNL     1     100.561 123.208 113.074  1.00  0.00     0.166 HD
ENDROOT
BRANCH   6  18
ATOM     18  C   UNL     1     102.461 114.963 109.517  1.00  0.00     0.230 C 
ATOM     19  O   UNL     1     102.542 115.087 108.291  1.00  0.00    -0.274 OA
ATOM     20  N   UNL     1     101.779 113.881 110.085  1.00  0.00    -0.343 N 
BRANCH  20  21
ATOM     21  C   UNL     1     101.154 112.925 109.165  1.00  0.00     0.116 C 
ATOM     22  C   UNL     1      99.649 113.108 109.032  1.00  0.00     0.027 C 
ENDBRANCH  20  21
BRANCH  20  23
ATOM     23  C   UNL     1     101.500 113.722 111.516  1.00  0.00     0.116 C 
ATOM     24  C   UNL     1     102.433 112.736 112.202  1.00  0.00     0.027 C 
ENDBRANCH  20  23
ENDBRANCH   6  18
BRANCH   1  25
ATOM     25  C   UNL     1     105.607 117.973 111.222  1.00  0.00     0.112 C 
BRANCH  25  26
ATOM     26  C   UNL     1     106.968 118.463 110.816  1.00  0.00    -0.019 C 
ATOM     27  C   UNL     1     107.348 118.693 109.550  1.00  0.00     0.005 C 
ENDBRANCH  25  26
ENDBRANCH   1  25
TORSDOF 5
ENDMDL
MODEL 2
REMARK VINA RESULT:    -8.212      1.566      1.919
REMARK INTER + INTRA:         -11.141
REMARK INTER:                 -10.597
REMARK INTRA:                  -0.544
REMARK UNBOUND:                -0.529
REMARK SMILES C=CCN1C[C@H](C(=O)N(CC)CC)C=C2c3cccc4[nH]cc(c34)C[C@H]21
REMARK SMILES IDX 4 1 21 2 26 3 15 4 25 5 6 6 5 7 23 8 16 9 14 10 24 11 20 12
REMARK SMILES IDX 22 13 17 14 19 15 18 16 7 18 8 19 9 20 10 21 11 22 12 23
REMARK SMILES IDX 13 24 3 25 2 26 1 27
REMARK H PARENT 21 17
ROOT
ATOM      1  N   UNL     1     105.424 118.119 109.615  1.00  0.00    -0.291 NA
ATOM      2  N   UNL     1     102.327 122.295 112.685  1.00  0.00    -0.361 N 
ATOM      3  C   UNL     1     104.348 119.029 110.091  1.00  0.00     0.092 C 
ATOM      4  C   UNL     1     103.025 118.296 110.474  1.00  0.00    -0.026 C 
ATOM      5  C   UNL     1     104.857 120.132 111.092  1.00  0.00     0.061 C 
ATOM      6  C   UNL     1     103.771 116.221 109.269  1.00  0.00     0.116 C 
ATOM      7  C   UNL     1     104.894 117.104 108.694  1.00  0.00     0.103 C 
ATOM      8  C   UNL     1     103.720 120.893 111.676  1.00  0.00    -0.020 A 
ATOM      9  C   UNL     1     101.987 119.089 111.182  1.00  0.00    -0.011 A 
ATOM     10  C   UNL     1     102.798 117.016 110.112  1.00  0.00    -0.007 C 
ATOM     11  C   UNL     1     102.429 120.320 111.692  1.00  0.00     0.010 A 
ATOM     12  C   UNL     1     101.570 121.198 112.333  1.00  0.00     0.046 A 
ATOM     13  C   UNL     1     103.636 122.119 112.294  1.00  0.00     0.087 A 
ATOM     14  C   UNL     1     100.629 118.785 111.353  1.00  0.00     0.009 A 
ATOM     15  C   UNL     1     100.219 120.901 112.515  1.00  0.00     0.027 A 
ATOM     16  C   UNL     1      99.767 119.674 112.011  1.00  0.00     0.003 A 
ATOM     17  H   UNL     1     101.969 123.107 113.168  1.00  0.00     0.166 HD
ENDROOT
BRANCH   6  18
ATOM     18  C   UNL     1     103.044 115.534 108.094  1.00  0.00     0.230 C 
ATOM     19  O   UNL     1     102.784 116.158 107.061  1.00  0.00    -0.274 OA
ATOM     20  N   UNL     1     102.724 114.177 108.214  1.00  0.00    -0.343 N 
BRANCH  20  21
ATOM     21  C   UNL     1     102.052 113.544 107.075  1.00  0.00     0.116 C 
ATOM     22  C   UNL     1     103.014 112.959 106.051  1.00  0.00     0.027 C 
ENDBRANCH  20  21
BRANCH  20  23
ATOM     23  C   UNL     1     102.855 113.388 109.443  1.00  0.00     0.116 C 
ATOM     24  C   UNL     1     101.766 112.338 109.600  1.00  0.00     0.027 C 
ENDBRANCH  20  23
ENDBRANCH   6  18
BRANCH   1  25
ATOM     25  C   UNL     1     106.401 117.632 110.585  1.00  0.00     0.112 C 
BRANCH  25  26
ATOM     26  C   UNL     1     106.941 116.240 110.416  1.00  0.00    -0.019 C 
ATOM     27  C   UNL     1     106.494 115.165 111.081  1.00  0.00     0.005 C 
ENDBRANCH  25  26
ENDBRANCH   1  25
TORSDOF 5
ENDMDL
MODEL 3
REMARK VINA RESULT:    -7.969      2.340      6.350
REMARK INTER + INTRA:         -10.828
REMARK INTER:                 -10.179
REMARK INTRA:                  -0.649
REMARK UNBOUND:                -0.529
REMARK SMILES C=CCN1C[C@H](C(=O)N(CC)CC)C=C2c3cccc4[nH]cc(c34)C[C@H]21
REMARK SMILES IDX 4 1 21 2 26 3 15 4 25 5 6 6 5 7 23 8 16 9 14 10 24 11 20 12
REMARK SMILES IDX 22 13 17 14 19 15 18 16 7 18 8 19 9 20 10 21 11 22 12 23
REMARK SMILES IDX 13 24 3 25 2 26 1 27
REMARK H PARENT 21 17
ROOT
ATOM      1  N   UNL     1     102.820 120.031 112.703  1.00  0.00    -0.291 NA
ATOM      2  N   UNL     1     106.298 116.112 109.703  1.00  0.00    -0.361 N 
ATOM      3  C   UNL     1     103.414 118.779 112.163  1.00  0.00     0.092 C 
ATOM      4  C   UNL     1     102.386 117.850 111.446  1.00  0.00    -0.026 C 
ATOM      5  C   UNL     1     104.789 119.003 111.430  1.00  0.00     0.061 C 
ATOM      6  C   UNL     1     100.466 119.101 112.479  1.00  0.00     0.116 C 
ATOM      7  C   UNL     1     101.534 119.768 113.365  1.00  0.00     0.103 C 
ATOM      8  C   UNL     1     105.246 117.759 110.754  1.00  0.00    -0.020 A 
ATOM      9  C   UNL     1     102.927 116.703 110.672  1.00  0.00    -0.011 A 
ATOM     10  C   UNL     1     101.055 118.032 111.585  1.00  0.00    -0.007 C 
ATOM     11  C   UNL     1     104.307 116.757 110.423  1.00  0.00     0.010 A 
ATOM     12  C   UNL     1     104.972 115.740 109.758  1.00  0.00     0.046 A 
ATOM     13  C   UNL     1     106.476 117.340 110.302  1.00  0.00     0.087 A 
ATOM     14  C   UNL     1     102.246 115.567 110.213  1.00  0.00     0.009 A 
ATOM     15  C   UNL     1     104.302 114.608 109.290  1.00  0.00     0.027 A 
ATOM     16  C   UNL     1     102.923 114.544 109.533  1.00  0.00     0.003 A 
ATOM     17  H   UNL     1     107.030 115.563 109.276  1.00  0.00     0.166 HD
ENDROOT
BRANCH   6  18
ATOM     18  C   UNL     1      99.376 118.508 113.395  1.00  0.00     0.230 C 
ATOM     19  O   UNL     1      99.294 117.289 113.574  1.00  0.00    -0.274 OA
ATOM     20  N   UNL     1      98.509 119.390 114.052  1.00  0.00    -0.343 N 
BRANCH  20  21
ATOM     21  C   UNL     1      97.495 118.801 114.933  1.00  0.00     0.116 C 
ATOM     22  C   UNL     1      97.786 119.004 116.412  1.00  0.00     0.027 C 
ENDBRANCH  20  21
BRANCH  20  23
ATOM     23  C   UNL     1      98.427 120.832 113.798  1.00  0.00     0.116 C 
ATOM     24  C   UNL     1      97.454 121.190 112.685  1.00  0.00     0.027 C 
ENDBRANCH  20  23
ENDBRANCH   6  18
BRANCH   1  25
ATOM     25  C   UNL     1     102.859 121.232 111.874  1.00  0.00     0.112 C 
BRANCH  25  26
ATOM     26  C   UNL     1     102.112 122.448 112.343  1.00  0.00    -0.019 C 
ATOM     27  C   UNL     1     100.901 122.815 111.900  1.00  0.00     0.005 C 
ENDBRANCH  25  26
ENDBRANCH   1  25
TORSDOF 5
ENDMDL
MODEL 4
REMARK VINA RESULT:    -7.942      2.805      6.516
REMARK INTER + INTRA:         -10.793
REMARK INTER:                  -9.980
REMARK INTRA:                  -0.813
REMARK UNBOUND:                -0.529
REMARK SMILES C=CCN1C[C@H](C(=O)N(CC)CC)C=C2c3cccc4[nH]cc(c34)C[C@H]21
REMARK SMILES IDX 4 1 21 2 26 3 15 4 25 5 6 6 5 7 23 8 16 9 14 10 24 11 20 12
REMARK SMILES IDX 22 13 17 14 19 15 18 16 7 18 8 19 9 20 10 21 11 22 12 23
REMARK SMILES IDX 13 24 3 25 2 26 1 27
REMARK H PARENT 21 17
ROOT
ATOM      1  N   UNL     1     100.812 120.687 113.096  1.00  0.00    -0.291 NA
ATOM      2  N   UNL     1     105.073 117.721 110.015  1.00  0.00    -0.361 N 
ATOM      3  C   UNL     1     101.769 119.648 112.633  1.00  0.00     0.092 C 
ATOM      4  C   UNL     1     101.106 118.271 112.322  1.00  0.00    -0.026 C 
ATOM      5  C   UNL     1     102.810 120.181 111.579  1.00  0.00     0.061 C 
ATOM      6  C   UNL     1      99.026 118.941 113.564  1.00  0.00     0.116 C 
ATOM      7  C   UNL     1      99.857 120.136 114.068  1.00  0.00     0.103 C 
ATOM      8  C   UNL     1     103.621 119.069 111.014  1.00  0.00    -0.020 A 
ATOM      9  C   UNL     1     101.938 117.254 111.629  1.00  0.00    -0.011 A 
ATOM     10  C   UNL     1      99.852 117.984 112.733  1.00  0.00    -0.007 C 
ATOM     11  C   UNL     1     103.125 117.747 111.065  1.00  0.00     0.010 A 
ATOM     12  C   UNL     1     104.034 116.916 110.429  1.00  0.00     0.046 A 
ATOM     13  C   UNL     1     104.831 119.033 110.362  1.00  0.00     0.087 A 
ATOM     14  C   UNL     1     101.711 115.875 111.518  1.00  0.00     0.009 A 
ATOM     15  C   UNL     1     103.813 115.544 110.306  1.00  0.00     0.027 A 
ATOM     16  C   UNL     1     102.630 115.041 110.865  1.00  0.00     0.003 A 
ATOM     17  H   UNL     1     105.890 117.393 109.520  1.00  0.00     0.166 HD
ENDROOT
BRANCH   6  18
ATOM     18  C   UNL     1      98.418 118.222 114.785  1.00  0.00     0.230 C 
ATOM     19  O   UNL     1      99.048 117.340 115.377  1.00  0.00    -0.274 OA
ATOM     20  N   UNL     1      97.154 118.623 115.230  1.00  0.00    -0.343 N 
BRANCH  20  21
ATOM     21  C   UNL     1      96.608 117.936 116.406  1.00  0.00     0.116 C 
ATOM     22  C   UNL     1      95.602 116.848 116.061  1.00  0.00     0.027 C 
ENDBRANCH  20  21
BRANCH  20  23
ATOM     23  C   UNL     1      96.267 119.549 114.519  1.00  0.00     0.116 C 
ATOM     24  C   UNL     1      96.262 120.949 115.113  1.00  0.00     0.027 C 
ENDBRANCH  20  23
ENDBRANCH   6  18
BRANCH   1  25
ATOM     25  C   UNL     1     100.238 121.596 112.107  1.00  0.00     0.112 C 
BRANCH  25  26
ATOM     26  C   UNL     1      98.930 121.224 111.470  1.00  0.00    -0.019 C 
ATOM     27  C   UNL     1      98.808 120.594 110.293  1.00  0.00     0.005 C 
ENDBRANCH  25  26
ENDBRANCH   1  25
TORSDOF 5
ENDMDL
MODEL 5
REMARK VINA RESULT:    -7.814      1.363      1.812
REMARK INTER + INTRA:         -10.627
REMARK INTER:                 -10.974
REMARK INTRA:                   0.346
REMARK UNBOUND:                -0.529
REMARK SMILES C=CCN1C[C@H](C(=O)N(CC)CC)C=C2c3cccc4[nH]cc(c34)C[C@H]21
REMARK SMILES IDX 4 1 21 2 26 3 15 4 25 5 6 6 5 7 23 8 16 9 14 10 24 11 20 12
REMARK SMILES IDX 22 13 17 14 19 15 18 16 7 18 8 19 9 20 10 21 11 22 12 23
REMARK SMILES IDX 13 24 3 25 2 26 1 27
REMARK H PARENT 21 17
ROOT
ATOM      1  N   UNL     1     104.422 117.477 109.965  1.00  0.00    -0.291 NA
ATOM      2  N   UNL     1     101.272 121.818 112.739  1.00  0.00    -0.361 N 
ATOM      3  C   UNL     1     103.313 118.329 110.469  1.00  0.00     0.092 C 
ATOM      4  C   UNL     1     102.222 117.543 111.260  1.00  0.00    -0.026 C 
ATOM      5  C   UNL     1     103.801 119.684 111.105  1.00  0.00     0.061 C 
ATOM      6  C   UNL     1     103.076 115.359 110.355  1.00  0.00     0.116 C 
ATOM      7  C   UNL     1     103.914 116.222 109.394  1.00  0.00     0.103 C 
ATOM      8  C   UNL     1     102.677 120.409 111.754  1.00  0.00    -0.020 A 
ATOM      9  C   UNL     1     101.209 118.339 112.001  1.00  0.00    -0.011 A 
ATOM     10  C   UNL     1     102.151 116.195 111.212  1.00  0.00    -0.007 C 
ATOM     11  C   UNL     1     101.524 119.698 112.154  1.00  0.00     0.010 A 
ATOM     12  C   UNL     1     100.659 120.584 112.777  1.00  0.00     0.046 A 
ATOM     13  C   UNL     1     102.501 121.723 112.123  1.00  0.00     0.087 A 
ATOM     14  C   UNL     1      99.975 117.914 112.511  1.00  0.00     0.009 A 
ATOM     15  C   UNL     1      99.432 120.169 113.295  1.00  0.00     0.027 A 
ATOM     16  C   UNL     1      99.108 118.813 113.149  1.00  0.00     0.003 A 
ATOM     17  H   UNL     1     100.876 122.666 113.118  1.00  0.00     0.166 HD
ENDROOT
BRANCH   6  18
ATOM     18  C   UNL     1     102.275 114.340 109.519  1.00  0.00     0.230 C 
ATOM     19  O   UNL     1     101.088 114.110 109.770  1.00  0.00    -0.274 OA
ATOM     20  N   UNL     1     102.916 113.713 108.444  1.00  0.00    -0.343 N 
BRANCH  20  21
ATOM     21  C   UNL     1     102.125 112.765 107.653  1.00  0.00     0.116 C 
ATOM     22  C   UNL     1     101.233 113.433 106.618  1.00  0.00     0.027 C 
ENDBRANCH  20  21
BRANCH  20  23
ATOM     23  C   UNL     1     104.350 113.804 108.153  1.00  0.00     0.116 C 
ATOM     24  C   UNL     1     104.658 113.845 106.664  1.00  0.00     0.027 C 
ENDBRANCH  20  23
ENDBRANCH   6  18
BRANCH   1  25
ATOM     25  C   UNL     1     105.625 117.347 110.783  1.00  0.00     0.112 C 
BRANCH  25  26
ATOM     26  C   UNL     1     106.860 118.092 110.361  1.00  0.00    -0.019 C 
ATOM     27  C   UNL     1     106.942 118.877 109.277  1.00  0.00     0.005 C 
ENDBRANCH  25  26
ENDBRANCH   1  25
TORSDOF 5
ENDMDL
MODEL 6
REMARK VINA RESULT:    -7.687      2.393      6.236
REMARK INTER + INTRA:         -10.463
REMARK INTER:                  -9.918
REMARK INTRA:                  -0.546
REMARK UNBOUND:                -0.529
REMARK SMILES C=CCN1C[C@H](C(=O)N(CC)CC)C=C2c3cccc4[nH]cc(c34)C[C@H]21
REMARK SMILES IDX 4 1 21 2 26 3 15 4 25 5 6 6 5 7 23 8 16 9 14 10 24 11 20 12
REMARK SMILES IDX 22 13 17 14 19 15 18 16 7 18 8 19 9 20 10 21 11 22 12 23
REMARK SMILES IDX 13 24 3 25 2 26 1 27
REMARK H PARENT 21 17
ROOT
ATOM      1  N   UNL     1     103.796 118.798 111.778  1.00  0.00    -0.291 NA
ATOM      2  N   UNL     1     103.976 113.543 108.810  1.00  0.00    -0.361 N 
ATOM      3  C   UNL     1     103.626 117.369 111.402  1.00  0.00     0.092 C 
ATOM      4  C   UNL     1     102.145 116.880 111.431  1.00  0.00    -0.026 C 
ATOM      5  C   UNL     1     104.482 116.943 110.152  1.00  0.00     0.061 C 
ATOM      6  C   UNL     1     101.458 118.896 112.767  1.00  0.00     0.116 C 
ATOM      7  C   UNL     1     102.968 119.146 112.941  1.00  0.00     0.103 C 
ATOM      8  C   UNL     1     104.138 115.565 109.710  1.00  0.00    -0.020 A 
ATOM      9  C   UNL     1     101.855 115.547 110.843  1.00  0.00    -0.011 A 
ATOM     10  C   UNL     1     101.176 117.603 112.034  1.00  0.00    -0.007 C 
ATOM     11  C   UNL     1     102.888 115.009 110.061  1.00  0.00     0.010 A 
ATOM     12  C   UNL     1     102.793 113.752 109.486  1.00  0.00     0.046 A 
ATOM     13  C   UNL     1     104.800 114.640 108.936  1.00  0.00     0.087 A 
ATOM     14  C   UNL     1     100.713 114.752 111.016  1.00  0.00     0.009 A 
ATOM     15  C   UNL     1     101.657 112.956 109.645  1.00  0.00     0.027 A 
ATOM     16  C   UNL     1     100.619 113.485 110.423  1.00  0.00     0.003 A 
ATOM     17  H   UNL     1     104.198 112.706 108.290  1.00  0.00     0.166 HD
ENDROOT
BRANCH   6  18
ATOM     18  C   UNL     1     100.804 118.888 114.163  1.00  0.00     0.230 C 
ATOM     19  O   UNL     1     101.451 118.560 115.163  1.00  0.00    -0.274 OA
ATOM     20  N   UNL     1      99.471 119.301 114.275  1.00  0.00    -0.343 N 
BRANCH  20  21
ATOM     21  C   UNL     1      98.880 119.303 115.616  1.00  0.00     0.116 C 
ATOM     22  C   UNL     1      97.969 118.113 115.880  1.00  0.00     0.027 C 
ENDBRANCH  20  21
BRANCH  20  23
ATOM     23  C   UNL     1      98.577 119.567 113.143  1.00  0.00     0.116 C 
ATOM     24  C   UNL     1      98.434 121.048 112.828  1.00  0.00     0.027 C 
ENDBRANCH  20  23
ENDBRANCH   6  18
BRANCH   1  25
ATOM     25  C   UNL     1     103.826 119.797 110.713  1.00  0.00     0.112 C 
BRANCH  25  26
ATOM     26  C   UNL     1     104.770 120.958 110.849  1.00  0.00    -0.019 C 
ATOM     27  C   UNL     1     104.946 121.668 111.972  1.00  0.00     0.005 C 
ENDBRANCH  25  26
ENDBRANCH   1  25
TORSDOF 5
ENDMDL
MODEL 7
REMARK VINA RESULT:    -7.614      1.950      3.011
REMARK INTER + INTRA:         -10.369
REMARK INTER:                 -10.878
REMARK INTRA:                   0.509
REMARK UNBOUND:                -0.529
REMARK SMILES C=CCN1C[C@H](C(=O)N(CC)CC)C=C2c3cccc4[nH]cc(c34)C[C@H]21
REMARK SMILES IDX 4 1 21 2 26 3 15 4 25 5 6 6 5 7 23 8 16 9 14 10 24 11 20 12
REMARK SMILES IDX 22 13 17 14 19 15 18 16 7 18 8 19 9 20 10 21 11 22 12 23
REMARK SMILES IDX 13 24 3 25 2 26 1 27
REMARK H PARENT 21 17
ROOT
ATOM      1  N   UNL     1     104.113 115.551 107.939  1.00  0.00    -0.291 NA
ATOM      2  N   UNL     1     104.183 120.771 110.972  1.00  0.00    -0.361 N 
ATOM      3  C   UNL     1     103.698 116.769 108.685  1.00  0.00     0.092 C 
ATOM      4  C   UNL     1     102.829 116.473 109.946  1.00  0.00    -0.026 C 
ATOM      5  C   UNL     1     104.857 117.820 108.861  1.00  0.00     0.061 C 
ATOM      6  C   UNL     1     102.384 114.132 109.145  1.00  0.00     0.116 C 
ATOM      7  C   UNL     1     103.000 114.599 107.813  1.00  0.00     0.103 C 
ATOM      8  C   UNL     1     104.445 118.928 109.765  1.00  0.00    -0.020 A 
ATOM      9  C   UNL     1     102.574 117.601 110.879  1.00  0.00    -0.011 A 
ATOM     10  C   UNL     1     102.265 115.262 110.144  1.00  0.00    -0.007 C 
ATOM     11  C   UNL     1     103.389 118.726 110.681  1.00  0.00     0.010 A 
ATOM     12  C   UNL     1     103.242 119.878 111.436  1.00  0.00     0.046 A 
ATOM     13  C   UNL     1     104.923 120.203 109.958  1.00  0.00     0.087 A 
ATOM     14  C   UNL     1     101.599 117.694 111.881  1.00  0.00     0.009 A 
ATOM     15  C   UNL     1     102.279 119.979 112.442  1.00  0.00     0.027 A 
ATOM     16  C   UNL     1     101.460 118.860 112.648  1.00  0.00     0.003 A 
ATOM     17  H   UNL     1     104.313 121.706 111.332  1.00  0.00     0.166 HD
ENDROOT
BRANCH   6  18
ATOM     18  C   UNL     1     101.003 113.513 108.851  1.00  0.00     0.230 C 
ATOM     19  O   UNL     1     100.667 113.236 107.695  1.00  0.00    -0.274 OA
ATOM     20  N   UNL     1     100.156 113.236 109.930  1.00  0.00    -0.343 N 
BRANCH  20  21
ATOM     21  C   UNL     1      98.857 112.629 109.624  1.00  0.00     0.116 C 
ATOM     22  C   UNL     1      97.851 113.610 109.038  1.00  0.00     0.027 C 
ENDBRANCH  20  21
BRANCH  20  23
ATOM     23  C   UNL     1     100.394 113.656 111.314  1.00  0.00     0.116 C 
ATOM     24  C   UNL     1      99.221 114.409 111.923  1.00  0.00     0.027 C 
ENDBRANCH  20  23
ENDBRANCH   6  18
BRANCH   1  25
ATOM     25  C   UNL     1     105.410 114.955 108.247  1.00  0.00     0.112 C 
BRANCH  25  26
ATOM     26  C   UNL     1     105.741 114.669 109.684  1.00  0.00    -0.019 C 
ATOM     27  C   UNL     1     106.578 115.403 110.433  1.00  0.00     0.005 C 
ENDBRANCH  25  26
ENDBRANCH   1  25
TORSDOF 5
ENDMDL
MODEL 8
REMARK VINA RESULT:    -7.502      7.235     10.900
REMARK INTER + INTRA:         -10.224
REMARK INTER:                  -9.304
REMARK INTRA:                  -0.920
REMARK UNBOUND:                -0.529
REMARK SMILES C=CCN1C[C@H](C(=O)N(CC)CC)C=C2c3cccc4[nH]cc(c34)C[C@H]21
REMARK SMILES IDX 4 1 21 2 26 3 15 4 25 5 6 6 5 7 23 8 16 9 14 10 24 11 20 12
REMARK SMILES IDX 22 13 17 14 19 15 18 16 7 18 8 19 9 20 10 21 11 22 12 23
REMARK SMILES IDX 13 24 3 25 2 26 1 27
REMARK H PARENT 21 17
ROOT
ATOM      1  N   UNL     1      93.946 119.032 115.105  1.00  0.00    -0.291 NA
ATOM      2  N   UNL     1      94.039 113.078 116.104  1.00  0.00    -0.361 N 
ATOM      3  C   UNL     1      94.375 117.611 115.196  1.00  0.00     0.092 C 
ATOM      4  C   UNL     1      95.683 117.398 116.019  1.00  0.00    -0.026 C 
ATOM      5  C   UNL     1      93.191 116.616 115.488  1.00  0.00     0.061 C 
ATOM      6  C   UNL     1      96.222 119.849 115.884  1.00  0.00     0.116 C 
ATOM      7  C   UNL     1      95.090 119.918 114.844  1.00  0.00     0.103 C 
ATOM      8  C   UNL     1      93.695 115.242 115.751  1.00  0.00    -0.020 A 
ATOM      9  C   UNL     1      96.051 116.000 116.365  1.00  0.00    -0.011 A 
ATOM     10  C   UNL     1      96.490 118.431 116.340  1.00  0.00    -0.007 C 
ATOM     11  C   UNL     1      95.030 115.056 116.173  1.00  0.00     0.010 A 
ATOM     12  C   UNL     1      95.231 113.704 116.401  1.00  0.00     0.046 A 
ATOM     13  C   UNL     1      93.097 114.004 115.711  1.00  0.00     0.087 A 
ATOM     14  C   UNL     1      97.290 115.512 116.801  1.00  0.00     0.009 A 
ATOM     15  C   UNL     1      96.458 113.209 116.844  1.00  0.00     0.027 A 
ATOM     16  C   UNL     1      97.484 114.143 117.039  1.00  0.00     0.003 A 
ATOM     17  H   UNL     1      93.882 112.083 116.174  1.00  0.00     0.166 HD
ENDROOT
BRANCH   6  18
ATOM     18  C   UNL     1      97.489 120.473 115.265  1.00  0.00     0.230 C 
ATOM     19  O   UNL     1      98.298 119.777 114.644  1.00  0.00    -0.274 OA
ATOM     20  N   UNL     1      97.678 121.854 115.391  1.00  0.00    -0.343 N 
BRANCH  20  21
ATOM     21  C   UNL     1      98.880 122.425 114.775  1.00  0.00     0.116 C 
ATOM     22  C   UNL     1      99.463 123.596 115.554  1.00  0.00     0.027 C 
ENDBRANCH  20  21
BRANCH  20  23
ATOM     23  C   UNL     1      96.862 122.741 116.227  1.00  0.00     0.116 C 
ATOM     24  C   UNL     1      95.847 123.548 115.431  1.00  0.00     0.027 C 
ENDBRANCH  20  23
ENDBRANCH   6  18
BRANCH   1  25
ATOM     25  C   UNL     1      92.982 119.531 116.082  1.00  0.00     0.112 C 
BRANCH  25  26
ATOM     26  C   UNL     1      92.794 121.017 116.205  1.00  0.00    -0.019 C 
ATOM     27  C   UNL     1      93.175 121.747 117.263  1.00  0.00     0.005 C 
ENDBRANCH  25  26
ENDBRANCH   1  25
TORSDOF 5
ENDMDL
MODEL 9
REMARK VINA RESULT:    -7.348      6.937     10.451
REMARK INTER + INTRA:         -10.024
REMARK INTER:                  -9.070
REMARK INTRA:                  -0.954
REMARK UNBOUND:                -0.529
REMARK SMILES C=CCN1C[C@H](C(=O)N(CC)CC)C=C2c3cccc4[nH]cc(c34)C[C@H]21
REMARK SMILES IDX 4 1 21 2 26 3 15 4 25 5 6 6 5 7 23 8 16 9 14 10 24 11 20 12
REMARK SMILES IDX 22 13 17 14 19 15 18 16 7 18 8 19 9 20 10 21 11 22 12 23
REMARK SMILES IDX 13 24 3 25 2 26 1 27
REMARK H PARENT 21 17
ROOT
ATOM      1  N   UNL     1      97.323 118.692 116.689  1.00  0.00    -0.291 NA
ATOM      2  N   UNL     1      96.050 112.791 116.666  1.00  0.00    -0.361 N 
ATOM      3  C   UNL     1      96.608 117.391 116.766  1.00  0.00     0.092 C 
ATOM      4  C   UNL     1      95.387 117.283 115.801  1.00  0.00    -0.026 C 
ATOM      5  C   UNL     1      97.573 116.148 116.821  1.00  0.00     0.061 C 
ATOM      6  C   UNL     1      95.383 119.772 115.455  1.00  0.00     0.116 C 
ATOM      7  C   UNL     1      96.378 119.816 116.629  1.00  0.00     0.103 C 
ATOM      8  C   UNL     1      96.815 114.873 116.711  1.00  0.00    -0.020 A 
ATOM      9  C   UNL     1      94.765 115.943 115.636  1.00  0.00    -0.011 A 
ATOM     10  C   UNL     1      94.866 118.373 115.200  1.00  0.00    -0.007 C 
ATOM     11  C   UNL     1      95.528 114.873 116.129  1.00  0.00     0.010 A 
ATOM     12  C   UNL     1      95.065 113.568 116.095  1.00  0.00     0.046 A 
ATOM     13  C   UNL     1      97.120 113.573 117.040  1.00  0.00     0.087 A 
ATOM     14  C   UNL     1      93.507 115.631 115.103  1.00  0.00     0.009 A 
ATOM     15  C   UNL     1      93.817 113.245 115.560  1.00  0.00     0.027 A 
ATOM     16  C   UNL     1      93.048 114.306 115.064  1.00  0.00     0.003 A 
ATOM     17  H   UNL     1      95.994 111.789 116.783  1.00  0.00     0.166 HD
ENDROOT
BRANCH   6  18
ATOM     18  C   UNL     1      94.220 120.736 115.767  1.00  0.00     0.230 C 
ATOM     19  O   UNL     1      93.263 120.370 116.456  1.00  0.00    -0.274 OA
ATOM     20  N   UNL     1      94.298 122.048 115.285  1.00  0.00    -0.343 N 
BRANCH  20  21
ATOM     21  C   UNL     1      93.189 122.950 115.613  1.00  0.00     0.116 C 
ATOM     22  C   UNL     1      93.457 123.822 116.831  1.00  0.00     0.027 C 
ENDBRANCH  20  21
BRANCH  20  23
ATOM     23  C   UNL     1      95.310 122.538 114.343  1.00  0.00     0.116 C 
ATOM     24  C   UNL     1      96.465 123.255 115.025  1.00  0.00     0.027 C 
ENDBRANCH  20  23
ENDBRANCH   6  18
BRANCH   1  25
ATOM     25  C   UNL     1      98.477 118.801 115.800  1.00  0.00     0.112 C 
BRANCH  25  26
ATOM     26  C   UNL     1      99.007 120.170 115.481  1.00  0.00    -0.019 C 
ATOM     27  C   UNL     1      99.112 120.675 114.243  1.00  0.00     0.005 C 
ENDBRANCH  25  26
ENDBRANCH   1  25
TORSDOF 5
ENDMDL
MODEL 10
REMARK VINA RESULT:    -7.144      7.981     11.585
REMARK INTER + INTRA:          -9.761
REMARK INTER:                  -8.931
REMARK INTRA:                  -0.831
REMARK UNBOUND:                -0.529
REMARK SMILES C=CCN1C[C@H](C(=O)N(CC)CC)C=C2c3cccc4[nH]cc(c34)C[C@H]21
REMARK SMILES IDX 4 1 21 2 26 3 15 4 25 5 6 6 5 7 23 8 16 9 14 10 24 11 20 12
REMARK SMILES IDX 22 13 17 14 19 15 18 16 7 18 8 19 9 20 10 21 11 22 12 23
REMARK SMILES IDX 13 24 3 25 2 26 1 27
REMARK H PARENT 21 17
ROOT
ATOM      1  N   UNL     1      93.090 118.505 115.657  1.00  0.00    -0.291 NA
ATOM      2  N   UNL     1      95.503 112.992 115.170  1.00  0.00    -0.361 N 
ATOM      3  C   UNL     1      94.030 117.381 115.407  1.00  0.00     0.092 C 
ATOM      4  C   UNL     1      95.379 117.501 116.181  1.00  0.00    -0.026 C 
ATOM      5  C   UNL     1      93.335 115.968 115.421  1.00  0.00     0.061 C 
ATOM      6  C   UNL     1      94.939 119.928 116.662  1.00  0.00     0.116 C 
ATOM      7  C   UNL     1      93.790 119.797 115.645  1.00  0.00     0.103 C 
ATOM      8  C   UNL     1      94.340 114.874 115.350  1.00  0.00    -0.020 A 
ATOM      9  C   UNL     1      96.273 116.314 116.181  1.00  0.00    -0.011 A 
ATOM     10  C   UNL     1      95.757 118.659 116.762  1.00  0.00    -0.007 C 
ATOM     11  C   UNL     1      95.674 115.123 115.743  1.00  0.00     0.010 A 
ATOM     12  C   UNL     1      96.388 113.940 115.637  1.00  0.00     0.046 A 
ATOM     13  C   UNL     1      94.254 113.548 114.995  1.00  0.00     0.087 A 
ATOM     14  C   UNL     1      97.634 116.253 116.512  1.00  0.00     0.009 A 
ATOM     15  C   UNL     1      97.741 113.867 115.971  1.00  0.00     0.027 A 
ATOM     16  C   UNL     1      98.349 115.051 116.411  1.00  0.00     0.003 A 
ATOM     17  H   UNL     1      95.740 112.027 114.990  1.00  0.00     0.166 HD
ENDROOT
BRANCH   6  18
ATOM     18  C   UNL     1      95.825 121.119 116.242  1.00  0.00     0.230 C 
ATOM     19  O   UNL     1      96.707 120.980 115.389  1.00  0.00    -0.274 OA
ATOM     20  N   UNL     1      95.578 122.368 116.822  1.00  0.00    -0.343 N 
BRANCH  20  21
ATOM     21  C   UNL     1      96.421 123.487 116.390  1.00  0.00     0.116 C 
ATOM     22  C   UNL     1      97.482 123.875 117.410  1.00  0.00     0.027 C 
ENDBRANCH  20  21
BRANCH  20  23
ATOM     23  C   UNL     1      94.662 122.607 117.942  1.00  0.00     0.116 C 
ATOM     24  C   UNL     1      93.370 123.293 117.523  1.00  0.00     0.027 C 
ENDBRANCH  20  23
ENDBRANCH   6  18
BRANCH   1  25
ATOM     25  C   UNL     1      92.085 118.351 116.705  1.00  0.00     0.112 C 
BRANCH  25  26
ATOM     26  C   UNL     1      92.550 118.055 118.103  1.00  0.00    -0.019 C 
ATOM     27  C   UNL     1      92.322 116.904 118.753  1.00  0.00     0.005 C 
ENDBRANCH  25  26
ENDBRANCH   1  25
TORSDOF 5
ENDMDL
MODEL 11
REMARK VINA RESULT:    -7.068      2.567      5.402
REMARK INTER + INTRA:          -9.662
REMARK INTER:                  -9.991
REMARK INTRA:                   0.328
REMARK UNBOUND:                -0.529
REMARK SMILES C=CCN1C[C@H](C(=O)N(CC)CC)C=C2c3cccc4[nH]cc(c34)C[C@H]21
REMARK SMILES IDX 4 1 21 2 26 3 15 4 25 5 6 6 5 7 23 8 16 9 14 10 24 11 20 12
REMARK SMILES IDX 22 13 17 14 19 15 18 16 7 18 8 19 9 20 10 21 11 22 12 23
REMARK SMILES IDX 13 24 3 25 2 26 1 27
REMARK H PARENT 21 17
ROOT
ATOM      1  N   UNL     1     101.072 119.946 113.007  1.00  0.00    -0.291 NA
ATOM      2  N   UNL     1     106.349 118.634 110.383  1.00  0.00    -0.361 N 
ATOM      3  C   UNL     1     102.308 119.245 112.569  1.00  0.00     0.092 C 
ATOM      4  C   UNL     1     102.045 117.868 111.883  1.00  0.00    -0.026 C 
ATOM      5  C   UNL     1     103.351 120.192 111.867  1.00  0.00     0.061 C 
ATOM      6  C   UNL     1      99.693 117.825 112.770  1.00  0.00     0.116 C 
ATOM      7  C   UNL     1     100.129 119.016 113.644  1.00  0.00     0.103 C 
ATOM      8  C   UNL     1     104.479 119.414 111.289  1.00  0.00    -0.020 A 
ATOM      9  C   UNL     1     103.193 117.215 111.204  1.00  0.00    -0.011 A 
ATOM     10  C   UNL     1     100.844 117.257 111.968  1.00  0.00    -0.007 C 
ATOM     11  C   UNL     1     104.306 118.044 110.996  1.00  0.00     0.010 A 
ATOM     12  C   UNL     1     105.474 117.570 110.421  1.00  0.00     0.046 A 
ATOM     13  C   UNL     1     105.753 119.762 110.905  1.00  0.00     0.087 A 
ATOM     14  C   UNL     1     103.315 115.878 110.799  1.00  0.00     0.009 A 
ATOM     15  C   UNL     1     105.604 116.243 110.007  1.00  0.00     0.027 A 
ATOM     16  C   UNL     1     104.497 115.407 110.210  1.00  0.00     0.003 A 
ATOM     17  H   UNL     1     107.289 118.591 110.016  1.00  0.00     0.166 HD
ENDROOT
BRANCH   6  18
ATOM     18  C   UNL     1      99.083 116.747 113.689  1.00  0.00     0.230 C 
ATOM     19  O   UNL     1      98.653 117.040 114.809  1.00  0.00    -0.274 OA
ATOM     20  N   UNL     1      98.991 115.437 113.205  1.00  0.00    -0.343 N 
BRANCH  20  21
ATOM     21  C   UNL     1      98.387 114.436 114.091  1.00  0.00     0.116 C 
ATOM     22  C   UNL     1      99.394 113.452 114.670  1.00  0.00     0.027 C 
ENDBRANCH  20  21
BRANCH  20  23
ATOM     23  C   UNL     1      99.598 114.957 111.960  1.00  0.00     0.116 C 
ATOM     24  C   UNL     1      98.677 114.056 111.152  1.00  0.00     0.027 C 
ENDBRANCH  20  23
ENDBRANCH   6  18
BRANCH   1  25
ATOM     25  C   UNL     1     100.469 120.921 112.102  1.00  0.00     0.112 C 
BRANCH  25  26
ATOM     26  C   UNL     1      99.079 120.662 111.595  1.00  0.00    -0.019 C 
ATOM     27  C   UNL     1      98.753 120.532 110.301  1.00  0.00     0.005 C 
ENDBRANCH  25  26
ENDBRANCH   1  25
TORSDOF 5
ENDMDL
MODEL 12
REMARK VINA RESULT:    -7.060      2.214      6.338
REMARK INTER + INTRA:          -9.653
REMARK INTER:                  -9.485
REMARK INTRA:                  -0.168
REMARK UNBOUND:                -0.529
REMARK SMILES C=CCN1C[C@H](C(=O)N(CC)CC)C=C2c3cccc4[nH]cc(c34)C[C@H]21
REMARK SMILES IDX 4 1 21 2 26 3 15 4 25 5 6 6 5 7 23 8 16 9 14 10 24 11 20 12
REMARK SMILES IDX 22 13 17 14 19 15 18 16 7 18 8 19 9 20 10 21 11 22 12 23
REMARK SMILES IDX 13 24 3 25 2 26 1 27
REMARK H PARENT 21 17
ROOT
ATOM      1  N   UNL     1     103.823 119.174 112.020  1.00  0.00    -0.291 NA
ATOM      2  N   UNL     1     106.112 114.440 109.054  1.00  0.00    -0.361 N 
ATOM      3  C   UNL     1     104.029 117.816 111.452  1.00  0.00     0.092 C 
ATOM      4  C   UNL     1     102.825 117.294 110.608  1.00  0.00    -0.026 C 
ATOM      5  C   UNL     1     105.463 117.605 110.836  1.00  0.00     0.061 C 
ATOM      6  C   UNL     1     101.325 119.065 111.571  1.00  0.00     0.116 C 
ATOM      7  C   UNL     1     102.468 119.321 112.570  1.00  0.00     0.103 C 
ATOM      8  C   UNL     1     105.555 116.304 110.122  1.00  0.00    -0.020 A 
ATOM      9  C   UNL     1     103.037 116.059 109.808  1.00  0.00    -0.011 A 
ATOM     10  C   UNL     1     101.617 117.893 110.660  1.00  0.00    -0.007 C 
ATOM     11  C   UNL     1     104.378 115.672 109.664  1.00  0.00     0.010 A 
ATOM     12  C   UNL     1     104.737 114.516 108.990  1.00  0.00     0.046 A 
ATOM     13  C   UNL     1     106.621 115.523 109.736  1.00  0.00     0.087 A 
ATOM     14  C   UNL     1     102.071 115.221 109.234  1.00  0.00     0.009 A 
ATOM     15  C   UNL     1     103.784 113.679 108.409  1.00  0.00     0.027 A 
ATOM     16  C   UNL     1     102.442 114.057 108.546  1.00  0.00     0.003 A 
ATOM     17  H   UNL     1     106.664 113.697 108.649  1.00  0.00     0.166 HD
ENDROOT
BRANCH   6  18
ATOM     18  C   UNL     1     100.026 118.829 112.369  1.00  0.00     0.230 C 
ATOM     19  O   UNL     1      99.517 117.705 112.429  1.00  0.00    -0.274 OA
ATOM     20  N   UNL     1      99.462 119.910 113.055  1.00  0.00    -0.343 N 
BRANCH  20  21
ATOM     21  C   UNL     1      98.240 119.653 113.823  1.00  0.00     0.116 C 
ATOM     22  C   UNL     1      96.977 120.152 113.136  1.00  0.00     0.027 C 
ENDBRANCH  20  21
BRANCH  20  23
ATOM     23  C   UNL     1      99.900 121.304 112.932  1.00  0.00     0.116 C 
ATOM     24  C   UNL     1      99.571 121.918 111.579  1.00  0.00     0.027 C 
ENDBRANCH  20  23
ENDBRANCH   6  18
BRANCH   1  25
ATOM     25  C   UNL     1     104.318 120.325 111.269  1.00  0.00     0.112 C 
BRANCH  25  26
ATOM     26  C   UNL     1     104.449 121.640 111.983  1.00  0.00    -0.019 C 
ATOM     27  C   UNL     1     103.416 122.389 112.395  1.00  0.00     0.005 C 
ENDBRANCH  25  26
ENDBRANCH   1  25
TORSDOF 5
ENDMDL
MODEL 13
REMARK VINA RESULT:    -7.011      2.805      5.658
REMARK INTER + INTRA:          -9.589
REMARK INTER:                  -8.923
REMARK INTRA:                  -0.665
REMARK UNBOUND:                -0.529
REMARK SMILES C=CCN1C[C@H](C(=O)N(CC)CC)C=C2c3cccc4[nH]cc(c34)C[C@H]21
REMARK SMILES IDX 4 1 21 2 26 3 15 4 25 5 6 6 5 7 23 8 16 9 14 10 24 11 20 12
REMARK SMILES IDX 22 13 17 14 19 15 18 16 7 18 8 19 9 20 10 21 11 22 12 23
REMARK SMILES IDX 13 24 3 25 2 26 1 27
REMARK H PARENT 21 17
ROOT
ATOM      1  N   UNL     1      99.224 120.273 111.488  1.00  0.00    -0.291 NA
ATOM      2  N   UNL     1      95.711 119.161 116.271  1.00  0.00    -0.361 N 
ATOM      3  C   UNL     1      98.544 119.605 112.629  1.00  0.00     0.092 C 
ATOM      4  C   UNL     1      99.523 118.969 113.663  1.00  0.00    -0.026 C 
ATOM      5  C   UNL     1      97.343 120.437 113.217  1.00  0.00     0.061 C 
ATOM      6  C   UNL     1     101.424 119.123 112.027  1.00  0.00     0.116 C 
ATOM      7  C   UNL     1     100.342 119.462 110.985  1.00  0.00     0.103 C 
ATOM      8  C   UNL     1      96.819 119.816 114.462  1.00  0.00    -0.020 A 
ATOM      9  C   UNL     1      98.945 118.495 114.948  1.00  0.00    -0.011 A 
ATOM     10  C   UNL     1     100.829 118.784 113.376  1.00  0.00    -0.007 C 
ATOM     11  C   UNL     1      97.642 118.945 115.210  1.00  0.00     0.010 A 
ATOM     12  C   UNL     1      96.945 118.550 116.341  1.00  0.00     0.046 A 
ATOM     13  C   UNL     1      95.625 119.936 115.135  1.00  0.00     0.087 A 
ATOM     14  C   UNL     1      99.516 117.626 115.888  1.00  0.00     0.009 A 
ATOM     15  C   UNL     1      97.507 117.692 117.287  1.00  0.00     0.027 A 
ATOM     16  C   UNL     1      98.809 117.238 117.035  1.00  0.00     0.003 A 
ATOM     17  H   UNL     1      94.981 119.058 116.960  1.00  0.00     0.166 HD
ENDROOT
BRANCH   6  18
ATOM     18  C   UNL     1     102.265 117.947 111.488  1.00  0.00     0.230 C 
ATOM     19  O   UNL     1     101.851 116.786 111.566  1.00  0.00    -0.274 OA
ATOM     20  N   UNL     1     103.489 118.233 110.873  1.00  0.00    -0.343 N 
BRANCH  20  21
ATOM     21  C   UNL     1     104.258 117.098 110.351  1.00  0.00     0.116 C 
ATOM     22  C   UNL     1     104.023 116.836 108.871  1.00  0.00     0.027 C 
ENDBRANCH  20  21
BRANCH  20  23
ATOM     23  C   UNL     1     104.135 119.549 110.859  1.00  0.00     0.116 C 
ATOM     24  C   UNL     1     105.654 119.470 110.849  1.00  0.00     0.027 C 
ENDBRANCH  20  23
ENDBRANCH   6  18
BRANCH   1  25
ATOM     25  C   UNL     1      99.486 121.708 111.578  1.00  0.00     0.112 C 
BRANCH  25  26
ATOM     26  C   UNL     1     100.454 122.193 112.619  1.00  0.00    -0.019 C 
ATOM     27  C   UNL     1     101.608 122.820 112.352  1.00  0.00     0.005 C 
ENDBRANCH  25  26
ENDBRANCH   1  25
TORSDOF 5
ENDMDL
MODEL 14
REMARK VINA RESULT:    -7.010      6.865     10.768
REMARK INTER + INTRA:          -9.589
REMARK INTER:                  -8.752
REMARK INTRA:                  -0.837
REMARK UNBOUND:                -0.529
REMARK SMILES C=CCN1C[C@H](C(=O)N(CC)CC)C=C2c3cccc4[nH]cc(c34)C[C@H]21
REMARK SMILES IDX 4 1 21 2 26 3 15 4 25 5 6 6 5 7 23 8 16 9 14 10 24 11 20 12
REMARK SMILES IDX 22 13 17 14 19 15 18 16 7 18 8 19 9 20 10 21 11 22 12 23
REMARK SMILES IDX 13 24 3 25 2 26 1 27
REMARK H PARENT 21 17
ROOT
ATOM      1  N   UNL     1      97.583 118.563 116.543  1.00  0.00    -0.291 NA
ATOM      2  N   UNL     1      96.426 112.787 115.221  1.00  0.00    -0.361 N 
ATOM      3  C   UNL     1      97.002 117.195 116.534  1.00  0.00     0.092 C 
ATOM      4  C   UNL     1      95.455 117.166 116.337  1.00  0.00    -0.026 C 
ATOM      5  C   UNL     1      97.838 116.164 115.686  1.00  0.00     0.061 C 
ATOM      6  C   UNL     1      95.295 119.615 116.880  1.00  0.00     0.116 C 
ATOM      7  C   UNL     1      96.759 119.486 117.337  1.00  0.00     0.103 C 
ATOM      8  C   UNL     1      97.122 114.867 115.559  1.00  0.00    -0.020 A 
ATOM      9  C   UNL     1      94.825 115.846 116.075  1.00  0.00    -0.011 A 
ATOM     10  C   UNL     1      94.706 118.281 116.474  1.00  0.00    -0.007 C 
ATOM     11  C   UNL     1      95.721 114.821 115.736  1.00  0.00     0.010 A 
ATOM     12  C   UNL     1      95.296 113.521 115.512  1.00  0.00     0.046 A 
ATOM     13  C   UNL     1      97.541 113.596 115.243  1.00  0.00     0.087 A 
ATOM     14  C   UNL     1      93.471 115.495 116.175  1.00  0.00     0.009 A 
ATOM     15  C   UNL     1      93.950 113.163 115.602  1.00  0.00     0.027 A 
ATOM     16  C   UNL     1      93.046 114.180 115.938  1.00  0.00     0.003 A 
ATOM     17  H   UNL     1      96.429 111.799 115.013  1.00  0.00     0.166 HD
ENDROOT
BRANCH   6  18
ATOM     18  C   UNL     1      94.481 120.245 118.029  1.00  0.00     0.230 C 
ATOM     19  O   UNL     1      94.199 119.590 119.037  1.00  0.00    -0.274 OA
ATOM     20  N   UNL     1      94.107 121.589 117.918  1.00  0.00    -0.343 N 
BRANCH  20  21
ATOM     21  C   UNL     1      93.352 122.169 119.033  1.00  0.00     0.116 C 
ATOM     22  C   UNL     1      93.535 123.673 119.173  1.00  0.00     0.027 C 
ENDBRANCH  20  21
BRANCH  20  23
ATOM     23  C   UNL     1      94.262 122.407 116.711  1.00  0.00     0.116 C 
ATOM     24  C   UNL     1      93.121 122.235 115.720  1.00  0.00     0.027 C 
ENDBRANCH  20  23
ENDBRANCH   6  18
BRANCH   1  25
ATOM     25  C   UNL     1      98.096 119.109 115.289  1.00  0.00     0.112 C 
BRANCH  25  26
ATOM     26  C   UNL     1      99.580 119.296 115.147  1.00  0.00    -0.019 C 
ATOM     27  C   UNL     1     100.499 118.711 115.928  1.00  0.00     0.005 C 
ENDBRANCH  25  26
ENDBRANCH   1  25
TORSDOF 5
ENDMDL
MODEL 15
REMARK VINA RESULT:    -6.974      1.776      2.618
REMARK INTER + INTRA:          -9.541
REMARK INTER:                 -10.741
REMARK INTRA:                   1.199
REMARK UNBOUND:                -0.529
REMARK SMILES C=CCN1C[C@H](C(=O)N(CC)CC)C=C2c3cccc4[nH]cc(c34)C[C@H]21
REMARK SMILES IDX 4 1 21 2 26 3 15 4 25 5 6 6 5 7 23 8 16 9 14 10 24 11 20 12
REMARK SMILES IDX 22 13 17 14 19 15 18 16 7 18 8 19 9 20 10 21 11 22 12 23
REMARK SMILES IDX 13 24 3 25 2 26 1 27
REMARK H PARENT 21 17
ROOT
ATOM      1  N   UNL     1     103.150 115.708 110.053  1.00  0.00    -0.291 NA
ATOM      2  N   UNL     1     102.171 121.181 112.407  1.00  0.00    -0.361 N 
ATOM      3  C   UNL     1     102.496 116.956 110.530  1.00  0.00     0.092 C 
ATOM      4  C   UNL     1     101.343 116.715 111.552  1.00  0.00    -0.026 C 
ATOM      5  C   UNL     1     103.516 118.104 110.878  1.00  0.00     0.061 C 
ATOM      6  C   UNL     1     101.238 114.282 110.929  1.00  0.00     0.116 C 
ATOM      7  C   UNL     1     102.156 114.667 109.754  1.00  0.00     0.103 C 
ATOM      8  C   UNL     1     102.829 119.257 111.518  1.00  0.00    -0.020 A 
ATOM      9  C   UNL     1     100.799 117.903 112.259  1.00  0.00    -0.011 A 
ATOM     10  C   UNL     1     100.807 115.489 111.733  1.00  0.00    -0.007 C 
ATOM     11  C   UNL     1     101.581 119.063 112.152  1.00  0.00     0.010 A 
ATOM     12  C   UNL     1     101.186 120.267 112.712  1.00  0.00     0.046 A 
ATOM     13  C   UNL     1     103.177 120.577 111.685  1.00  0.00     0.087 A 
ATOM     14  C   UNL     1      99.592 118.016 112.963  1.00  0.00     0.009 A 
ATOM     15  C   UNL     1      99.990 120.388 113.423  1.00  0.00     0.027 A 
ATOM     16  C   UNL     1      99.202 119.235 113.536  1.00  0.00     0.003 A 
ATOM     17  H   UNL     1     102.157 122.152 112.683  1.00  0.00     0.166 HD
ENDROOT
BRANCH   6  18
ATOM     18  C   UNL     1     100.013 113.535 110.363  1.00  0.00     0.230 C 
ATOM     19  O   UNL     1      99.053 113.255 111.087  1.00  0.00    -0.274 OA
ATOM     20  N   UNL     1      99.999 113.220 108.999  1.00  0.00    -0.343 N 
BRANCH  20  21
ATOM     21  C   UNL     1      98.813 112.528 108.483  1.00  0.00     0.116 C 
ATOM     22  C   UNL     1      97.642 113.459 108.205  1.00  0.00     0.027 C 
ENDBRANCH  20  21
BRANCH  20  23
ATOM     23  C   UNL     1     101.139 113.374 108.090  1.00  0.00     0.116 C 
ATOM     24  C   UNL     1     100.734 113.420 106.624  1.00  0.00     0.027 C 
ENDBRANCH  20  23
ENDBRANCH   6  18
BRANCH   1  25
ATOM     25  C   UNL     1     104.349 115.243 110.746  1.00  0.00     0.112 C 
BRANCH  25  26
ATOM     26  C   UNL     1     105.671 115.361 110.042  1.00  0.00    -0.019 C 
ATOM     27  C   UNL     1     106.622 116.254 110.354  1.00  0.00     0.005 C 
ENDBRANCH  25  26
ENDBRANCH   1  25
TORSDOF 5
ENDMDL
MODEL 16
REMARK VINA RESULT:    -6.950      4.028      6.858
REMARK INTER + INTRA:          -9.510
REMARK INTER:                  -8.674
REMARK INTRA:                  -0.836
REMARK UNBOUND:                -0.529
REMARK SMILES C=CCN1C[C@H](C(=O)N(CC)CC)C=C2c3cccc4[nH]cc(c34)C[C@H]21
REMARK SMILES IDX 4 1 21 2 26 3 15 4 25 5 6 6 5 7 23 8 16 9 14 10 24 11 20 12
REMARK SMILES IDX 22 13 17 14 19 15 18 16 7 18 8 19 9 20 10 21 11 22 12 23
REMARK SMILES IDX 13 24 3 25 2 26 1 27
REMARK H PARENT 21 17
ROOT
ATOM      1  N   UNL     1      97.813 120.456 115.096  1.00  0.00    -0.291 NA
ATOM      2  N   UNL     1     102.474 122.290 111.724  1.00  0.00    -0.361 N 
ATOM      3  C   UNL     1      99.166 120.597 114.495  1.00  0.00     0.092 C 
ATOM      4  C   UNL     1      99.737 119.271 113.905  1.00  0.00    -0.026 C 
ATOM      5  C   UNL     1      99.325 121.887 113.606  1.00  0.00     0.061 C 
ATOM      6  C   UNL     1      98.018 117.924 115.150  1.00  0.00     0.116 C 
ATOM      7  C   UNL     1      97.715 119.232 115.904  1.00  0.00     0.103 C 
ATOM      8  C   UNL     1     100.626 121.886 112.885  1.00  0.00    -0.020 A 
ATOM      9  C   UNL     1     100.967 119.366 113.077  1.00  0.00    -0.011 A 
ATOM     10  C   UNL     1      99.184 118.074 114.197  1.00  0.00    -0.007 C 
ATOM     11  C   UNL     1     101.304 120.666 112.669  1.00  0.00     0.010 A 
ATOM     12  C   UNL     1     102.450 120.928 111.935  1.00  0.00     0.046 A 
ATOM     13  C   UNL     1     101.368 122.882 112.294  1.00  0.00     0.087 A 
ATOM     14  C   UNL     1     101.844 118.338 112.704  1.00  0.00     0.009 A 
ATOM     15  C   UNL     1     103.326 119.911 111.552  1.00  0.00     0.027 A 
ATOM     16  C   UNL     1     102.997 118.609 111.953  1.00  0.00     0.003 A 
ATOM     17  H   UNL     1     103.197 122.779 111.216  1.00  0.00     0.166 HD
ENDROOT
BRANCH   6  18
ATOM     18  C   UNL     1      98.299 116.819 116.189  1.00  0.00     0.230 C 
ATOM     19  O   UNL     1      99.377 116.776 116.790  1.00  0.00    -0.274 OA
ATOM     20  N   UNL     1      97.287 115.893 116.464  1.00  0.00    -0.343 N 
BRANCH  20  21
ATOM     21  C   UNL     1      97.573 114.866 117.470  1.00  0.00     0.116 C 
ATOM     22  C   UNL     1      97.072 113.482 117.084  1.00  0.00     0.027 C 
ENDBRANCH  20  21
BRANCH  20  23
ATOM     23  C   UNL     1      96.036 115.767 115.708  1.00  0.00     0.116 C 
ATOM     24  C   UNL     1      94.840 116.377 116.424  1.00  0.00     0.027 C 
ENDBRANCH  20  23
ENDBRANCH   6  18
BRANCH   1  25
ATOM     25  C   UNL     1      96.649 120.748 114.264  1.00  0.00     0.112 C 
BRANCH  25  26
ATOM     26  C   UNL     1      96.393 119.883 113.063  1.00  0.00    -0.019 C 
ATOM     27  C   UNL     1      96.399 120.320 111.795  1.00  0.00     0.005 C 
ENDBRANCH  25  26
ENDBRANCH   1  25
TORSDOF 5
ENDMDL
MODEL 17
REMARK VINA RESULT:    -6.943      6.050     10.244
REMARK INTER + INTRA:          -9.501
REMARK INTER:                 -10.048
REMARK INTRA:                   0.547
REMARK UNBOUND:                -0.529
REMARK SMILES C=CCN1C[C@H](C(=O)N(CC)CC)C=C2c3cccc4[nH]cc(c34)C[C@H]21
REMARK SMILES IDX 4 1 21 2 26 3 15 4 25 5 6 6 5 7 23 8 16 9 14 10 24 11 20 12
REMARK SMILES IDX 22 13 17 14 19 15 18 16 7 18 8 19 9 20 10 21 11 22 12 23
REMARK SMILES IDX 13 24 3 25 2 26 1 27
REMARK H PARENT 21 17
ROOT
ATOM      1  N   UNL     1      93.862 119.275 114.981  1.00  0.00    -0.291 NA
ATOM      2  N   UNL     1      94.067 113.404 116.376  1.00  0.00    -0.361 N 
ATOM      3  C   UNL     1      94.282 117.853 115.093  1.00  0.00     0.092 C 
ATOM      4  C   UNL     1      95.720 117.661 115.665  1.00  0.00    -0.026 C 
ATOM      5  C   UNL     1      93.162 116.912 115.677  1.00  0.00     0.061 C 
ATOM      6  C   UNL     1      96.255 120.082 115.251  1.00  0.00     0.116 C 
ATOM      7  C   UNL     1      94.945 120.109 114.443  1.00  0.00     0.103 C 
ATOM      8  C   UNL     1      93.690 115.546 115.938  1.00  0.00    -0.020 A 
ATOM      9  C   UNL     1      96.129 116.282 116.035  1.00  0.00    -0.011 A 
ATOM     10  C   UNL     1      96.587 118.693 115.750  1.00  0.00    -0.007 C 
ATOM     11  C   UNL     1      95.079 115.355 116.111  1.00  0.00     0.010 A 
ATOM     12  C   UNL     1      95.302 114.017 116.395  1.00  0.00     0.046 A 
ATOM     13  C   UNL     1      93.080 114.325 116.104  1.00  0.00     0.087 A 
ATOM     14  C   UNL     1      97.423 115.792 116.262  1.00  0.00     0.009 A 
ATOM     15  C   UNL     1      96.585 113.520 116.630  1.00  0.00     0.027 A 
ATOM     16  C   UNL     1      97.641 114.438 116.558  1.00  0.00     0.003 A 
ATOM     17  H   UNL     1      93.913 112.420 116.547  1.00  0.00     0.166 HD
ENDROOT
BRANCH   6  18
ATOM     18  C   UNL     1      97.388 120.628 114.358  1.00  0.00     0.230 C 
ATOM     19  O   UNL     1      98.374 121.182 114.856  1.00  0.00    -0.274 OA
ATOM     20  N   UNL     1      97.290 120.445 112.974  1.00  0.00    -0.343 N 
BRANCH  20  21
ATOM     21  C   UNL     1      98.390 120.956 112.151  1.00  0.00     0.116 C 
ATOM     22  C   UNL     1      99.334 119.868 111.658  1.00  0.00     0.027 C 
ENDBRANCH  20  21
BRANCH  20  23
ATOM     23  C   UNL     1      96.104 119.937 112.277  1.00  0.00     0.116 C 
ATOM     24  C   UNL     1      95.875 120.599 110.926  1.00  0.00     0.027 C 
ENDBRANCH  20  23
ENDBRANCH   6  18
BRANCH   1  25
ATOM     25  C   UNL     1      93.110 119.866 116.085  1.00  0.00     0.112 C 
BRANCH  25  26
ATOM     26  C   UNL     1      92.840 121.343 116.055  1.00  0.00    -0.019 C 
ATOM     27  C   UNL     1      93.344 122.227 116.929  1.00  0.00     0.005 C 
ENDBRANCH  25  26
ENDBRANCH   1  25
TORSDOF 5
ENDMDL
MODEL 18
REMARK VINA RESULT:    -6.938      2.439      6.943
REMARK INTER + INTRA:          -9.495
REMARK INTER:                  -8.654
REMARK INTRA:                  -0.841
REMARK UNBOUND:                -0.529
REMARK SMILES C=CCN1C[C@H](C(=O)N(CC)CC)C=C2c3cccc4[nH]cc(c34)C[C@H]21
REMARK SMILES IDX 4 1 21 2 26 3 15 4 25 5 6 6 5 7 23 8 16 9 14 10 24 11 20 12
REMARK SMILES IDX 22 13 17 14 19 15 18 16 7 18 8 19 9 20 10 21 11 22 12 23
REMARK SMILES IDX 13 24 3 25 2 26 1 27
REMARK H PARENT 21 17
ROOT
ATOM      1  N   UNL     1     100.431 116.784 111.702  1.00  0.00    -0.291 NA
ATOM      2  N   UNL     1     105.816 116.106 109.058  1.00  0.00    -0.361 N 
ATOM      3  C   UNL     1     101.726 117.052 111.022  1.00  0.00     0.092 C 
ATOM      4  C   UNL     1     102.635 118.073 111.773  1.00  0.00    -0.026 C 
ATOM      5  C   UNL     1     102.429 115.752 110.478  1.00  0.00     0.061 C 
ATOM      6  C   UNL     1     100.695 118.834 113.178  1.00  0.00     0.116 C 
ATOM      7  C   UNL     1      99.824 118.026 112.199  1.00  0.00     0.103 C 
ATOM      8  C   UNL     1     103.796 116.051 109.975  1.00  0.00    -0.020 A 
ATOM      9  C   UNL     1     104.035 118.217 111.299  1.00  0.00    -0.011 A 
ATOM     10  C   UNL     1     102.150 118.851 112.764  1.00  0.00    -0.007 C 
ATOM     11  C   UNL     1     104.471 117.207 110.427  1.00  0.00     0.010 A 
ATOM     12  C   UNL     1     105.734 117.225 109.858  1.00  0.00     0.046 A 
ATOM     13  C   UNL     1     104.646 115.383 109.124  1.00  0.00     0.087 A 
ATOM     14  C   UNL     1     104.942 119.252 111.571  1.00  0.00     0.009 A 
ATOM     15  C   UNL     1     106.646 118.246 110.128  1.00  0.00     0.027 A 
ATOM     16  C   UNL     1     106.222 119.260 110.998  1.00  0.00     0.003 A 
ATOM     17  H   UNL     1     106.626 115.852 108.509  1.00  0.00     0.166 HD
ENDROOT
BRANCH   6  18
ATOM     18  C   UNL     1     100.132 120.268 113.260  1.00  0.00     0.230 C 
ATOM     19  O   UNL     1     100.492 121.135 112.457  1.00  0.00    -0.274 OA
ATOM     20  N   UNL     1      99.174 120.550 114.240  1.00  0.00    -0.343 N 
BRANCH  20  21
ATOM     21  C   UNL     1      98.640 121.915 114.282  1.00  0.00     0.116 C 
ATOM     22  C   UNL     1      97.239 122.037 113.702  1.00  0.00     0.027 C 
ENDBRANCH  20  21
BRANCH  20  23
ATOM     23  C   UNL     1      98.790 119.642 115.326  1.00  0.00     0.116 C 
ATOM     24  C   UNL     1      99.119 120.186 116.707  1.00  0.00     0.027 C 
ENDBRANCH  20  23
ENDBRANCH   6  18
BRANCH   1  25
ATOM     25  C   UNL     1     100.345 115.642 112.608  1.00  0.00     0.112 C 
BRANCH  25  26
ATOM     26  C   UNL     1      99.335 114.570 112.313  1.00  0.00    -0.019 C 
ATOM     27  C   UNL     1      99.261 113.892 111.158  1.00  0.00     0.005 C 
ENDBRANCH  25  26
ENDBRANCH   1  25
TORSDOF 5
ENDMDL
MODEL 19
REMARK VINA RESULT:    -6.838      4.533      8.974
REMARK INTER + INTRA:          -9.365
REMARK INTER:                  -8.486
REMARK INTRA:                  -0.880
REMARK UNBOUND:                -0.529
REMARK SMILES C=CCN1C[C@H](C(=O)N(CC)CC)C=C2c3cccc4[nH]cc(c34)C[C@H]21
REMARK SMILES IDX 4 1 21 2 26 3 15 4 25 5 6 6 5 7 23 8 16 9 14 10 24 11 20 12
REMARK SMILES IDX 22 13 17 14 19 15 18 16 7 18 8 19 9 20 10 21 11 22 12 23
REMARK SMILES IDX 13 24 3 25 2 26 1 27
REMARK H PARENT 21 17
ROOT
ATOM      1  N   UNL     1      97.203 118.820 114.438  1.00  0.00    -0.291 NA
ATOM      2  N   UNL     1     102.539 119.258 111.647  1.00  0.00    -0.361 N 
ATOM      3  C   UNL     1      98.326 119.282 113.581  1.00  0.00     0.092 C 
ATOM      4  C   UNL     1      98.761 120.756 113.850  1.00  0.00    -0.026 C 
ATOM      5  C   UNL     1      99.482 118.223 113.437  1.00  0.00     0.061 C 
ATOM      6  C   UNL     1      96.631 121.203 115.106  1.00  0.00     0.116 C 
ATOM      7  C   UNL     1      96.158 119.848 114.548  1.00  0.00     0.103 C 
ATOM      8  C   UNL     1     100.655 118.801 112.727  1.00  0.00    -0.020 A 
ATOM      9  C   UNL     1     100.022 121.222 113.216  1.00  0.00    -0.011 A 
ATOM     10  C   UNL     1      97.987 121.600 114.565  1.00  0.00    -0.007 C 
ATOM     11  C   UNL     1     100.833 120.201 112.696  1.00  0.00     0.010 A 
ATOM     12  C   UNL     1     102.016 120.475 112.029  1.00  0.00     0.046 A 
ATOM     13  C   UNL     1     101.721 118.233 112.070  1.00  0.00     0.087 A 
ATOM     14  C   UNL     1     100.466 122.539 113.033  1.00  0.00     0.009 A 
ATOM     15  C   UNL     1     102.472 121.782 111.848  1.00  0.00     0.027 A 
ATOM     16  C   UNL     1     101.670 122.809 112.365  1.00  0.00     0.003 A 
ATOM     17  H   UNL     1     103.402 119.140 111.137  1.00  0.00     0.166 HD
ENDROOT
BRANCH   6  18
ATOM     18  C   UNL     1      95.571 122.268 114.758  1.00  0.00     0.230 C 
ATOM     19  O   UNL     1      95.576 122.830 113.658  1.00  0.00    -0.274 OA
ATOM     20  N   UNL     1      94.578 122.551 115.704  1.00  0.00    -0.343 N 
BRANCH  20  21
ATOM     21  C   UNL     1      93.571 123.552 115.339  1.00  0.00     0.116 C 
ATOM     22  C   UNL     1      93.441 124.679 116.353  1.00  0.00     0.027 C 
ENDBRANCH  20  21
BRANCH  20  23
ATOM     23  C   UNL     1      94.566 122.053 117.083  1.00  0.00     0.116 C 
ATOM     24  C   UNL     1      93.579 120.916 117.300  1.00  0.00     0.027 C 
ENDBRANCH  20  23
ENDBRANCH   6  18
BRANCH   1  25
ATOM     25  C   UNL     1      97.519 118.118 115.679  1.00  0.00     0.112 C 
BRANCH  25  26
ATOM     26  C   UNL     1      96.383 117.642 116.539  1.00  0.00    -0.019 C 
ATOM     27  C   UNL     1      95.736 116.479 116.371  1.00  0.00     0.005 C 
ENDBRANCH  25  26
ENDBRANCH   1  25
TORSDOF 5
ENDMDL
MODEL 20
REMARK VINA RESULT:    -6.766      1.743      2.334
REMARK INTER + INTRA:          -9.273
REMARK INTER:                  -8.801
REMARK INTRA:                  -0.472
REMARK UNBOUND:                -0.529
REMARK SMILES C=CCN1C[C@H](C(=O)N(CC)CC)C=C2c3cccc4[nH]cc(c34)C[C@H]21
REMARK SMILES IDX 4 1 21 2 26 3 15 4 25 5 6 6 5 7 23 8 16 9 14 10 24 11 20 12
REMARK SMILES IDX 22 13 17 14 19 15 18 16 7 18 8 19 9 20 10 21 11 22 12 23
REMARK SMILES IDX 13 24 3 25 2 26 1 27
REMARK H PARENT 21 17
ROOT
ATOM      1  N   UNL     1     103.398 119.297 110.456  1.00  0.00    -0.291 NA
ATOM      2  N   UNL     1      99.100 121.789 113.887  1.00  0.00    -0.361 N 
ATOM      3  C   UNL     1     102.118 119.559 111.166  1.00  0.00     0.092 C 
ATOM      4  C   UNL     1     101.648 118.384 112.078  1.00  0.00    -0.026 C 
ATOM      5  C   UNL     1     102.027 121.006 111.781  1.00  0.00     0.061 C 
ATOM      6  C   UNL     1     103.250 116.809 110.949  1.00  0.00     0.116 C 
ATOM      7  C   UNL     1     103.435 117.932 109.912  1.00  0.00     0.103 C 
ATOM      8  C   UNL     1     100.815 121.153 112.630  1.00  0.00    -0.020 A 
ATOM      9  C   UNL     1     100.517 118.649 113.004  1.00  0.00    -0.011 A 
ATOM     10  C   UNL     1     102.195 117.153 111.978  1.00  0.00    -0.007 C 
ATOM     11  C   UNL     1     100.196 120.005 113.170  1.00  0.00     0.010 A 
ATOM     12  C   UNL     1      99.133 120.413 113.961  1.00  0.00     0.046 A 
ATOM     13  C   UNL     1     100.120 122.250 113.084  1.00  0.00     0.087 A 
ATOM     14  C   UNL     1      99.712 117.720 113.679  1.00  0.00     0.009 A 
ATOM     15  C   UNL     1      98.331 119.497 114.643  1.00  0.00     0.027 A 
ATOM     16  C   UNL     1      98.645 118.141 114.485  1.00  0.00     0.003 A 
ATOM     17  H   UNL     1      98.426 122.372 114.362  1.00  0.00     0.166 HD
ENDROOT
BRANCH   6  18
ATOM     18  C   UNL     1     102.882 115.512 110.200  1.00  0.00     0.230 C 
ATOM     19  O   UNL     1     101.782 114.976 110.368  1.00  0.00    -0.274 OA
ATOM     20  N   UNL     1     103.808 114.982 109.295  1.00  0.00    -0.343 N 
BRANCH  20  21
ATOM     21  C   UNL     1     103.425 113.760 108.582  1.00  0.00     0.116 C 
ATOM     22  C   UNL     1     104.291 113.471 107.365  1.00  0.00     0.027 C 
ENDBRANCH  20  21
BRANCH  20  23
ATOM     23  C   UNL     1     105.187 115.453 109.133  1.00  0.00     0.116 C 
ATOM     24  C   UNL     1     106.098 115.050 110.283  1.00  0.00     0.027 C 
ENDBRANCH  20  23
ENDBRANCH   6  18
BRANCH   1  25
ATOM     25  C   UNL     1     104.640 119.757 111.070  1.00  0.00     0.112 C 
BRANCH  25  26
ATOM     26  C   UNL     1     105.932 119.503 110.346  1.00  0.00    -0.019 C 
ATOM     27  C   UNL     1     106.926 118.732 110.811  1.00  0.00     0.005 C 
ENDBRANCH  25  26
ENDBRANCH   1  25
TORSDOF 5
ENDMDL
