MODEL 1
REMARK VINA RESULT:    -8.263      0.000      0.000
REMARK INTER + INTRA:         -10.632
REMARK INTER:                 -10.195
REMARK INTRA:                  -0.437
REMARK UNBOUND:                -0.437
REMARK SMILES CCN(CC)C(=O)[C@@H]1C=C2c3cccc4c3c(cn4C(C)=O)C[C@H]2N(C)C1
REMARK SMILES IDX 25 1 19 2 24 3 10 4 23 5 8 6 27 7 17 8 11 9 16 10 9 11 15 12
REMARK SMILES IDX 18 13 26 14 12 15 14 16 13 17 6 18 7 19 3 20 2 21 1 22 4 23
REMARK SMILES IDX 5 24 20 25 22 26 21 27
REMARK H PARENT
ROOT
ATOM      1  N   UNL     1      91.011 110.456  76.722  1.00  0.00    -0.298 NA
ATOM      2  N   UNL     1      88.680 111.106  82.305  1.00  0.00    -0.287 N 
ATOM      3  C   UNL     1      90.698 110.406  78.171  1.00  0.00     0.091 C 
ATOM      4  C   UNL     1      90.665 108.956  78.726  1.00  0.00    -0.026 C 
ATOM      5  C   UNL     1      89.435 111.223  78.639  1.00  0.00     0.061 C 
ATOM      6  C   UNL     1      90.610 108.020  76.428  1.00  0.00     0.116 C 
ATOM      7  C   UNL     1      90.282 109.447  75.943  1.00  0.00     0.102 C 
ATOM      8  C   UNL     1      89.213 111.016  80.105  1.00  0.00    -0.019 A 
ATOM      9  C   UNL     1      90.494 108.831  80.188  1.00  0.00    -0.011 A 
ATOM     10  C   UNL     1      89.748 109.884  80.753  1.00  0.00     0.011 A 
ATOM     11  C   UNL     1      90.662 107.873  77.927  1.00  0.00    -0.007 C 
ATOM     12  C   UNL     1      89.431 109.933  82.110  1.00  0.00     0.056 A 
ATOM     13  C   UNL     1      88.561 111.744  81.063  1.00  0.00     0.099 A 
ATOM     14  C   UNL     1      90.896 111.784  76.134  1.00  0.00     0.106 C 
ATOM     15  C   UNL     1      90.934 107.806  81.022  1.00  0.00     0.009 A 
ATOM     16  C   UNL     1      89.883 108.893  82.946  1.00  0.00     0.027 A 
ATOM     17  C   UNL     1      90.632 107.845  82.382  1.00  0.00     0.003 A 
ENDROOT
BRANCH   6  18
ATOM     18  C   UNL     1      89.694 106.991  75.740  1.00  0.00     0.230 C 
ATOM     19  O   UNL     1      88.477 107.064  75.958  1.00  0.00    -0.274 OA
ATOM     20  N   UNL     1      90.203 105.979  74.926  1.00  0.00    -0.343 N 
BRANCH  20  21
ATOM     21  C   UNL     1      89.234 105.047  74.337  1.00  0.00     0.116 C 
ATOM     22  C   UNL     1      89.836 104.154  73.262  1.00  0.00     0.027 C 
ENDBRANCH  20  21
BRANCH  20  23
ATOM     23  C   UNL     1      91.609 105.787  74.549  1.00  0.00     0.116 C 
ATOM     24  C   UNL     1      92.429 105.073  75.612  1.00  0.00     0.027 C 
ENDBRANCH  20  23
ENDBRANCH   6  18
BRANCH   2  25
ATOM     25  C   UNL     1      88.102 111.648  83.476  1.00  0.00     0.227 C 
ATOM     26  O   UNL     1      87.997 112.866  83.583  1.00  0.00    -0.274 OA
ATOM     27  C   UNL     1      87.642 110.694  84.527  1.00  0.00     0.115 C 
ENDBRANCH   2  25
TORSDOF 4
ENDMDL
MODEL 2
REMARK VINA RESULT:    -8.129      2.406      4.363
REMARK INTER + INTRA:         -10.466
REMARK INTER:                 -11.000
REMARK INTRA:                   0.533
REMARK UNBOUND:                -0.437
REMARK SMILES CCN(CC)C(=O)[C@@H]1C=C2c3cccc4c3c(cn4C(C)=O)C[C@H]2N(C)C1
REMARK SMILES IDX 25 1 19 2 24 3 10 4 23 5 8 6 27 7 17 8 11 9 16 10 9 11 15 12
REMARK SMILES IDX 18 13 26 14 12 15 14 16 13 17 6 18 7 19 3 20 2 21 1 22 4 23
REMARK SMILES IDX 5 24 20 25 22 26 21 27
REMARK H PARENT
ROOT
ATOM      1  N   UNL     1      90.434 108.175  77.273  1.00  0.00    -0.298 NA
ATOM      2  N   UNL     1      89.728 109.408  83.189  1.00  0.00    -0.287 N 
ATOM      3  C   UNL     1      89.989 108.649  78.606  1.00  0.00     0.091 C 
ATOM      4  C   UNL     1      89.690 110.173  78.630  1.00  0.00    -0.026 C 
ATOM      5  C   UNL     1      90.886 108.226  79.830  1.00  0.00     0.061 C 
ATOM      6  C   UNL     1      90.837 110.487  76.452  1.00  0.00     0.116 C 
ATOM      7  C   UNL     1      91.414 109.070  76.644  1.00  0.00     0.102 C 
ATOM      8  C   UNL     1      90.347 108.836  81.086  1.00  0.00    -0.019 A 
ATOM      9  C   UNL     1      89.112 110.695  79.885  1.00  0.00    -0.011 A 
ATOM     10  C   UNL     1      89.521 109.977  81.026  1.00  0.00     0.011 A 
ATOM     11  C   UNL     1      90.047 110.998  77.629  1.00  0.00    -0.007 C 
ATOM     12  C   UNL     1      89.127 110.334  82.316  1.00  0.00     0.056 A 
ATOM     13  C   UNL     1      90.468 108.509  82.410  1.00  0.00     0.099 A 
ATOM     14  C   UNL     1      90.873 106.787  77.251  1.00  0.00     0.106 C 
ATOM     15  C   UNL     1      88.281 111.798  80.057  1.00  0.00     0.009 A 
ATOM     16  C   UNL     1      88.284 111.450  82.480  1.00  0.00     0.027 A 
ATOM     17  C   UNL     1      87.872 112.163  81.339  1.00  0.00     0.003 A 
ENDROOT
BRANCH   6  18
ATOM     18  C   UNL     1      91.934 111.459  75.979  1.00  0.00     0.230 C 
ATOM     19  O   UNL     1      92.036 112.545  76.566  1.00  0.00    -0.274 OA
ATOM     20  N   UNL     1      92.770 111.159  74.903  1.00  0.00    -0.343 N 
BRANCH  20  21
ATOM     21  C   UNL     1      93.768 112.170  74.534  1.00  0.00     0.116 C 
ATOM     22  C   UNL     1      94.678 112.565  75.688  1.00  0.00     0.027 C 
ENDBRANCH  20  21
BRANCH  20  23
ATOM     23  C   UNL     1      92.792 109.907  74.137  1.00  0.00     0.116 C 
ATOM     24  C   UNL     1      94.127 109.182  74.198  1.00  0.00     0.027 C 
ENDBRANCH  20  23
ENDBRANCH   6  18
BRANCH   2  25
ATOM     25  C   UNL     1      89.672 109.299  84.598  1.00  0.00     0.227 C 
ATOM     26  O   UNL     1      88.633 109.596  85.180  1.00  0.00    -0.274 OA
ATOM     27  C   UNL     1      90.895 108.820  85.305  1.00  0.00     0.115 C 
ENDBRANCH   2  25
TORSDOF 4
ENDMDL
MODEL 3
REMARK VINA RESULT:    -8.110      2.528      8.195
REMARK INTER + INTRA:         -10.443
REMARK INTER:                 -10.067
REMARK INTRA:                  -0.376
REMARK UNBOUND:                -0.437
REMARK SMILES CCN(CC)C(=O)[C@@H]1C=C2c3cccc4c3c(cn4C(C)=O)C[C@H]2N(C)C1
REMARK SMILES IDX 25 1 19 2 24 3 10 4 23 5 8 6 27 7 17 8 11 9 16 10 9 11 15 12
REMARK SMILES IDX 18 13 26 14 12 15 14 16 13 17 6 18 7 19 3 20 2 21 1 22 4 23
REMARK SMILES IDX 5 24 20 25 22 26 21 27
REMARK H PARENT
ROOT
ATOM      1  N   UNL     1      89.519 107.255  79.091  1.00  0.00    -0.298 NA
ATOM      2  N   UNL     1      91.295 106.661  73.301  1.00  0.00    -0.287 N 
ATOM      3  C   UNL     1      90.253 107.212  77.802  1.00  0.00     0.091 C 
ATOM      4  C   UNL     1      91.062 108.511  77.532  1.00  0.00    -0.026 C 
ATOM      5  C   UNL     1      89.415 106.790  76.538  1.00  0.00     0.061 C 
ATOM      6  C   UNL     1      89.848 109.707  79.336  1.00  0.00     0.116 C 
ATOM      7  C   UNL     1      88.843 108.538  79.323  1.00  0.00     0.102 C 
ATOM      8  C   UNL     1      90.275 106.863  75.314  1.00  0.00    -0.019 A 
ATOM      9  C   UNL     1      91.927 108.491  76.335  1.00  0.00    -0.011 A 
ATOM     10  C   UNL     1      91.432 107.669  75.304  1.00  0.00     0.011 A 
ATOM     11  C   UNL     1      90.898 109.632  78.258  1.00  0.00    -0.007 C 
ATOM     12  C   UNL     1      92.072 107.546  74.071  1.00  0.00     0.056 A 
ATOM     13  C   UNL     1      90.204 106.264  74.086  1.00  0.00     0.099 A 
ATOM     14  C   UNL     1      88.627 106.124  79.305  1.00  0.00     0.106 C 
ATOM     15  C   UNL     1      93.103 109.202  76.111  1.00  0.00     0.009 A 
ATOM     16  C   UNL     1      93.262 108.267  73.854  1.00  0.00     0.027 A 
ATOM     17  C   UNL     1      93.759 109.084  74.886  1.00  0.00     0.003 A 
ENDROOT
BRANCH   6  18
ATOM     18  C   UNL     1      89.107 111.057  79.380  1.00  0.00     0.230 C 
ATOM     19  O   UNL     1      89.277 111.840  78.435  1.00  0.00    -0.274 OA
ATOM     20  N   UNL     1      88.299 111.419  80.458  1.00  0.00    -0.343 N 
BRANCH  20  21
ATOM     21  C   UNL     1      87.657 112.737  80.396  1.00  0.00     0.116 C 
ATOM     22  C   UNL     1      86.165 112.666  80.100  1.00  0.00     0.027 C 
ENDBRANCH  20  21
BRANCH  20  23
ATOM     23  C   UNL     1      87.977 110.588  81.625  1.00  0.00     0.116 C 
ATOM     24  C   UNL     1      88.962 110.748  82.772  1.00  0.00     0.027 C 
ENDBRANCH  20  23
ENDBRANCH   6  18
BRANCH   2  25
ATOM     25  C   UNL     1      91.474 106.185  71.982  1.00  0.00     0.227 C 
ATOM     26  O   UNL     1      91.628 106.994  71.071  1.00  0.00    -0.274 OA
ATOM     27  C   UNL     1      91.469 104.709  71.771  1.00  0.00     0.115 C 
ENDBRANCH   2  25
TORSDOF 4
ENDMDL
MODEL 4
REMARK VINA RESULT:    -7.995      2.275      4.343
REMARK INTER + INTRA:         -10.301
REMARK INTER:                  -9.929
REMARK INTRA:                  -0.372
REMARK UNBOUND:                -0.437
REMARK SMILES CCN(CC)C(=O)[C@@H]1C=C2c3cccc4c3c(cn4C(C)=O)C[C@H]2N(C)C1
REMARK SMILES IDX 25 1 19 2 24 3 10 4 23 5 8 6 27 7 17 8 11 9 16 10 9 11 15 12
REMARK SMILES IDX 18 13 26 14 12 15 14 16 13 17 6 18 7 19 3 20 2 21 1 22 4 23
REMARK SMILES IDX 5 24 20 25 22 26 21 27
REMARK H PARENT
ROOT
ATOM      1  N   UNL     1      89.630 107.119  77.726  1.00  0.00    -0.298 NA
ATOM      2  N   UNL     1      89.892 109.111  83.470  1.00  0.00    -0.287 N 
ATOM      3  C   UNL     1      89.480 107.844  79.012  1.00  0.00     0.091 C 
ATOM      4  C   UNL     1      89.677 109.377  78.859  1.00  0.00    -0.026 C 
ATOM      5  C   UNL     1      90.307 107.282  80.228  1.00  0.00     0.061 C 
ATOM      6  C   UNL     1      90.660 109.081  76.600  1.00  0.00     0.116 C 
ATOM      7  C   UNL     1      90.779 107.581  76.938  1.00  0.00     0.102 C 
ATOM      8  C   UNL     1      90.104 108.159  81.425  1.00  0.00    -0.019 A 
ATOM      9  C   UNL     1      89.410 110.183  80.069  1.00  0.00    -0.011 A 
ATOM     10  C   UNL     1      89.675 109.492  81.267  1.00  0.00     0.011 A 
ATOM     11  C   UNL     1      90.181 109.936  77.744  1.00  0.00    -0.007 C 
ATOM     12  C   UNL     1      89.534 110.086  82.521  1.00  0.00     0.056 A 
ATOM     13  C   UNL     1      90.237 107.947  82.771  1.00  0.00     0.099 A 
ATOM     14  C   UNL     1      89.608 105.668  77.856  1.00  0.00     0.106 C 
ATOM     15  C   UNL     1      88.985 111.507  80.145  1.00  0.00     0.009 A 
ATOM     16  C   UNL     1      89.102 111.425  82.588  1.00  0.00     0.027 A 
ATOM     17  C   UNL     1      88.831 112.112  81.391  1.00  0.00     0.003 A 
ENDROOT
BRANCH   6  18
ATOM     18  C   UNL     1      91.958 109.594  75.949  1.00  0.00     0.230 C 
ATOM     19  O   UNL     1      92.955 108.859  75.991  1.00  0.00    -0.274 OA
ATOM     20  N   UNL     1      92.040 110.857  75.362  1.00  0.00    -0.343 N 
BRANCH  20  21
ATOM     21  C   UNL     1      93.334 111.242  74.788  1.00  0.00     0.116 C 
ATOM     22  C   UNL     1      93.364 111.167  73.268  1.00  0.00     0.027 C 
ENDBRANCH  20  21
BRANCH  20  23
ATOM     23  C   UNL     1      90.941 111.819  75.207  1.00  0.00     0.116 C 
ATOM     24  C   UNL     1      90.884 112.857  76.317  1.00  0.00     0.027 C 
ENDBRANCH  20  23
ENDBRANCH   6  18
BRANCH   2  25
ATOM     25  C   UNL     1      89.934 109.170  84.882  1.00  0.00     0.227 C 
ATOM     26  O   UNL     1      88.923 109.497  85.497  1.00  0.00    -0.274 OA
ATOM     27  C   UNL     1      91.221 108.823  85.552  1.00  0.00     0.115 C 
ENDBRANCH   2  25
TORSDOF 4
ENDMDL
MODEL 5
REMARK VINA RESULT:    -7.687      2.655      7.642
REMARK INTER + INTRA:          -9.921
REMARK INTER:                 -10.083
REMARK INTRA:                   0.161
REMARK UNBOUND:                -0.437
REMARK SMILES CCN(CC)C(=O)[C@@H]1C=C2c3cccc4c3c(cn4C(C)=O)C[C@H]2N(C)C1
REMARK SMILES IDX 25 1 19 2 24 3 10 4 23 5 8 6 27 7 17 8 11 9 16 10 9 11 15 12
REMARK SMILES IDX 18 13 26 14 12 15 14 16 13 17 6 18 7 19 3 20 2 21 1 22 4 23
REMARK SMILES IDX 5 24 20 25 22 26 21 27
REMARK H PARENT
ROOT
ATOM      1  N   UNL     1      88.657 110.587  80.013  1.00  0.00    -0.298 NA
ATOM      2  N   UNL     1      92.142 110.552  75.026  1.00  0.00    -0.287 N 
ATOM      3  C   UNL     1      89.405 110.254  78.777  1.00  0.00     0.091 C 
ATOM      4  C   UNL     1      90.220 108.937  78.908  1.00  0.00    -0.026 C 
ATOM      5  C   UNL     1      90.284 111.407  78.162  1.00  0.00     0.061 C 
ATOM      6  C   UNL     1      89.928 108.938  81.372  1.00  0.00     0.116 C 
ATOM      7  C   UNL     1      89.452 110.398  81.233  1.00  0.00     0.102 C 
ATOM      8  C   UNL     1      91.026 110.896  76.967  1.00  0.00    -0.019 A 
ATOM      9  C   UNL     1      90.883 108.467  77.675  1.00  0.00    -0.011 A 
ATOM     10  C   UNL     1      91.254 109.514  76.809  1.00  0.00     0.011 A 
ATOM     11  C   UNL     1      90.423 108.325  80.089  1.00  0.00    -0.007 C 
ATOM     12  C   UNL     1      91.935 109.290  75.612  1.00  0.00     0.056 A 
ATOM     13  C   UNL     1      91.579 111.512  75.877  1.00  0.00     0.099 A 
ATOM     14  C   UNL     1      88.009 111.891  79.983  1.00  0.00     0.106 C 
ATOM     15  C   UNL     1      91.206 107.161  77.316  1.00  0.00     0.009 A 
ATOM     16  C   UNL     1      92.255 107.966  75.255  1.00  0.00     0.027 A 
ATOM     17  C   UNL     1      91.879 106.921  76.119  1.00  0.00     0.003 A 
ENDROOT
BRANCH   6  18
ATOM     18  C   UNL     1      90.920 108.802  82.543  1.00  0.00     0.230 C 
ATOM     19  O   UNL     1      92.111 108.596  82.269  1.00  0.00    -0.274 OA
ATOM     20  N   UNL     1      90.504 108.865  83.873  1.00  0.00    -0.343 N 
BRANCH  20  21
ATOM     21  C   UNL     1      91.538 108.706  84.902  1.00  0.00     0.116 C 
ATOM     22  C   UNL     1      91.090 109.169  86.281  1.00  0.00     0.027 C 
ENDBRANCH  20  21
BRANCH  20  23
ATOM     23  C   UNL     1      89.142 109.136  84.349  1.00  0.00     0.116 C 
ATOM     24  C   UNL     1      88.790 110.615  84.368  1.00  0.00     0.027 C 
ENDBRANCH  20  23
ENDBRANCH   6  18
BRANCH   2  25
ATOM     25  C   UNL     1      92.779 110.914  73.816  1.00  0.00     0.227 C 
ATOM     26  O   UNL     1      93.506 111.903  73.796  1.00  0.00    -0.274 OA
ATOM     27  C   UNL     1      92.530 110.059  72.620  1.00  0.00     0.115 C 
ENDBRANCH   2  25
TORSDOF 4
ENDMDL
MODEL 6
REMARK VINA RESULT:    -7.535      1.858      8.057
REMARK INTER + INTRA:          -9.734
REMARK INTER:                  -9.250
REMARK INTRA:                  -0.484
REMARK UNBOUND:                -0.437
REMARK SMILES CCN(CC)C(=O)[C@@H]1C=C2c3cccc4c3c(cn4C(C)=O)C[C@H]2N(C)C1
REMARK SMILES IDX 25 1 19 2 24 3 10 4 23 5 8 6 27 7 17 8 11 9 16 10 9 11 15 12
REMARK SMILES IDX 18 13 26 14 12 15 14 16 13 17 6 18 7 19 3 20 2 21 1 22 4 23
REMARK SMILES IDX 5 24 20 25 22 26 21 27
REMARK H PARENT
ROOT
ATOM      1  N   UNL     1      90.274 108.814  80.903  1.00  0.00    -0.298 NA
ATOM      2  N   UNL     1      90.081 106.221  75.402  1.00  0.00    -0.287 N 
ATOM      3  C   UNL     1      90.489 108.390  79.497  1.00  0.00     0.091 C 
ATOM      4  C   UNL     1      90.598 109.594  78.521  1.00  0.00    -0.026 C 
ATOM      5  C   UNL     1      89.503 107.295  78.942  1.00  0.00     0.061 C 
ATOM      6  C   UNL     1      89.703 111.141  80.243  1.00  0.00     0.116 C 
ATOM      7  C   UNL     1      89.280 109.887  81.033  1.00  0.00     0.102 C 
ATOM      8  C   UNL     1      89.804 107.029  77.500  1.00  0.00    -0.019 A 
ATOM      9  C   UNL     1      90.948 109.259  77.126  1.00  0.00    -0.011 A 
ATOM     10  C   UNL     1      90.488 107.989  76.727  1.00  0.00     0.011 A 
ATOM     11  C   UNL     1      90.273 110.850  78.879  1.00  0.00    -0.007 C 
ATOM     12  C   UNL     1      90.672 107.498  75.434  1.00  0.00     0.056 A 
ATOM     13  C   UNL     1      89.558 105.964  76.676  1.00  0.00     0.099 A 
ATOM     14  C   UNL     1      90.010 107.714  81.821  1.00  0.00     0.106 C 
ATOM     15  C   UNL     1      91.613 110.049  76.192  1.00  0.00     0.009 A 
ATOM     16  C   UNL     1      91.348 108.303  74.496  1.00  0.00     0.027 A 
ATOM     17  C   UNL     1      91.811 109.569  74.898  1.00  0.00     0.003 A 
ENDROOT
BRANCH   6  18
ATOM     18  C   UNL     1      88.565 112.179  80.225  1.00  0.00     0.230 C 
ATOM     19  O   UNL     1      87.917 112.308  79.177  1.00  0.00    -0.274 OA
ATOM     20  N   UNL     1      88.284 112.983  81.330  1.00  0.00    -0.343 N 
BRANCH  20  21
ATOM     21  C   UNL     1      87.186 113.947  81.190  1.00  0.00     0.116 C 
ATOM     22  C   UNL     1      87.661 115.357  80.870  1.00  0.00     0.027 C 
ENDBRANCH  20  21
BRANCH  20  23
ATOM     23  C   UNL     1      88.938 112.922  82.643  1.00  0.00     0.116 C 
ATOM     24  C   UNL     1      88.170 112.097  83.664  1.00  0.00     0.027 C 
ENDBRANCH  20  23
ENDBRANCH   6  18
BRANCH   2  25
ATOM     25  C   UNL     1      89.973 105.282  74.350  1.00  0.00     0.227 C 
ATOM     26  O   UNL     1      88.874 104.801  74.088  1.00  0.00    -0.274 OA
ATOM     27  C   UNL     1      91.217 104.927  73.607  1.00  0.00     0.115 C 
ENDBRANCH   2  25
TORSDOF 4
ENDMDL
MODEL 7
REMARK VINA RESULT:    -7.441      2.367      3.965
REMARK INTER + INTRA:          -9.618
REMARK INTER:                 -10.094
REMARK INTRA:                   0.476
REMARK UNBOUND:                -0.437
REMARK SMILES CCN(CC)C(=O)[C@@H]1C=C2c3cccc4c3c(cn4C(C)=O)C[C@H]2N(C)C1
REMARK SMILES IDX 25 1 19 2 24 3 10 4 23 5 8 6 27 7 17 8 11 9 16 10 9 11 15 12
REMARK SMILES IDX 18 13 26 14 12 15 14 16 13 17 6 18 7 19 3 20 2 21 1 22 4 23
REMARK SMILES IDX 5 24 20 25 22 26 21 27
REMARK H PARENT
ROOT
ATOM      1  N   UNL     1      89.835 107.338  77.363  1.00  0.00    -0.298 NA
ATOM      2  N   UNL     1      90.373 108.903  83.218  1.00  0.00    -0.287 N 
ATOM      3  C   UNL     1      89.733 107.954  78.709  1.00  0.00     0.091 C 
ATOM      4  C   UNL     1      89.840 109.503  78.665  1.00  0.00    -0.026 C 
ATOM      5  C   UNL     1      90.667 107.350  79.823  1.00  0.00     0.061 C 
ATOM      6  C   UNL     1      90.684 109.435  76.333  1.00  0.00     0.116 C 
ATOM      7  C   UNL     1      90.904 107.923  76.543  1.00  0.00     0.102 C 
ATOM      8  C   UNL     1      90.499 108.121  81.096  1.00  0.00    -0.019 A 
ATOM      9  C   UNL     1      89.611 110.199  79.949  1.00  0.00    -0.011 A 
ATOM     10  C   UNL     1      89.992 109.436  81.070  1.00  0.00     0.011 A 
ATOM     11  C   UNL     1      90.239 110.173  77.569  1.00  0.00    -0.007 C 
ATOM     12  C   UNL     1      89.903 109.925  82.373  1.00  0.00     0.056 A 
ATOM     13  C   UNL     1      90.732 107.816  82.410  1.00  0.00     0.099 A 
ATOM     14  C   UNL     1      89.897 105.883  77.379  1.00  0.00     0.106 C 
ATOM     15  C   UNL     1      89.125 111.487  80.155  1.00  0.00     0.009 A 
ATOM     16  C   UNL     1      89.407 111.228  82.573  1.00  0.00     0.027 A 
ATOM     17  C   UNL     1      89.022 111.986  81.453  1.00  0.00     0.003 A 
ENDROOT
BRANCH   6  18
ATOM     18  C   UNL     1      91.909 110.069  75.646  1.00  0.00     0.230 C 
ATOM     19  O   UNL     1      92.197 111.236  75.943  1.00  0.00    -0.274 OA
ATOM     20  N   UNL     1      92.656 109.380  74.690  1.00  0.00    -0.343 N 
BRANCH  20  21
ATOM     21  C   UNL     1      93.791 110.093  74.093  1.00  0.00     0.116 C 
ATOM     22  C   UNL     1      93.378 111.079  73.009  1.00  0.00     0.027 C 
ENDBRANCH  20  21
BRANCH  20  23
ATOM     23  C   UNL     1      92.458 107.989  74.264  1.00  0.00     0.116 C 
ATOM     24  C   UNL     1      92.210 107.843  72.771  1.00  0.00     0.027 C 
ENDBRANCH  20  23
ENDBRANCH   6  18
BRANCH   2  25
ATOM     25  C   UNL     1      90.506 108.858  84.625  1.00  0.00     0.227 C 
ATOM     26  O   UNL     1      89.494 108.841  85.321  1.00  0.00    -0.274 OA
ATOM     27  C   UNL     1      91.886 108.827  85.191  1.00  0.00     0.115 C 
ENDBRANCH   2  25
TORSDOF 4
ENDMDL
MODEL 8
REMARK VINA RESULT:    -7.388      1.964      7.278
REMARK INTER + INTRA:          -9.553
REMARK INTER:                  -9.601
REMARK INTRA:                   0.048
REMARK UNBOUND:                -0.437
REMARK SMILES CCN(CC)C(=O)[C@@H]1C=C2c3cccc4c3c(cn4C(C)=O)C[C@H]2N(C)C1
REMARK SMILES IDX 25 1 19 2 24 3 10 4 23 5 8 6 27 7 17 8 11 9 16 10 9 11 15 12
REMARK SMILES IDX 18 13 26 14 12 15 14 16 13 17 6 18 7 19 3 20 2 21 1 22 4 23
REMARK SMILES IDX 5 24 20 25 22 26 21 27
REMARK H PARENT
ROOT
ATOM      1  N   UNL     1      89.955 111.289  78.068  1.00  0.00    -0.298 NA
ATOM      2  N   UNL     1      91.689 105.997  75.617  1.00  0.00    -0.287 N 
ATOM      3  C   UNL     1      90.056 109.907  77.536  1.00  0.00     0.091 C 
ATOM      4  C   UNL     1      89.494 108.846  78.522  1.00  0.00    -0.026 C 
ATOM      5  C   UNL     1      91.465 109.477  76.979  1.00  0.00     0.061 C 
ATOM      6  C   UNL     1      89.476 110.496  80.375  1.00  0.00     0.116 C 
ATOM      7  C   UNL     1      90.354 111.391  79.478  1.00  0.00     0.102 C 
ATOM      8  C   UNL     1      91.422 108.044  76.548  1.00  0.00    -0.019 A 
ATOM      9  C   UNL     1      89.435 107.462  78.009  1.00  0.00    -0.011 A 
ATOM     10  C   UNL     1      90.440 107.175  77.065  1.00  0.00     0.011 A 
ATOM     11  C   UNL     1      89.198 109.130  79.803  1.00  0.00    -0.007 C 
ATOM     12  C   UNL     1      90.591 105.912  76.493  1.00  0.00     0.056 A 
ATOM     13  C   UNL     1      92.176 107.309  75.674  1.00  0.00     0.099 A 
ATOM     14  C   UNL     1      90.613 112.293  77.243  1.00  0.00     0.106 C 
ATOM     15  C   UNL     1      88.558 106.444  78.377  1.00  0.00     0.009 A 
ATOM     16  C   UNL     1      89.698 104.889  76.868  1.00  0.00     0.027 A 
ATOM     17  C   UNL     1      88.691 105.179  77.807  1.00  0.00     0.003 A 
ENDROOT
BRANCH   6  18
ATOM     18  C   UNL     1      90.030 110.461  81.812  1.00  0.00     0.230 C 
ATOM     19  O   UNL     1      89.899 111.478  82.506  1.00  0.00    -0.274 OA
ATOM     20  N   UNL     1      90.693 109.343  82.319  1.00  0.00    -0.343 N 
BRANCH  20  21
ATOM     21  C   UNL     1      91.191 109.432  83.696  1.00  0.00     0.116 C 
ATOM     22  C   UNL     1      90.269 108.773  84.712  1.00  0.00     0.027 C 
ENDBRANCH  20  21
BRANCH  20  23
ATOM     23  C   UNL     1      90.892 108.061  81.631  1.00  0.00     0.116 C 
ATOM     24  C   UNL     1      92.351 107.641  81.544  1.00  0.00     0.027 C 
ENDBRANCH  20  23
ENDBRANCH   6  18
BRANCH   2  25
ATOM     25  C   UNL     1      92.282 105.020  74.784  1.00  0.00     0.227 C 
ATOM     26  O   UNL     1      93.337 104.497  75.133  1.00  0.00    -0.274 OA
ATOM     27  C   UNL     1      91.579 104.672  73.515  1.00  0.00     0.115 C 
ENDBRANCH   2  25
TORSDOF 4
ENDMDL
MODEL 9
REMARK VINA RESULT:    -7.098      2.047      7.676
REMARK INTER + INTRA:          -9.195
REMARK INTER:                  -8.486
REMARK INTRA:                  -0.709
REMARK UNBOUND:                -0.437
REMARK SMILES CCN(CC)C(=O)[C@@H]1C=C2c3cccc4c3c(cn4C(C)=O)C[C@H]2N(C)C1
REMARK SMILES IDX 25 1 19 2 24 3 10 4 23 5 8 6 27 7 17 8 11 9 16 10 9 11 15 12
REMARK SMILES IDX 18 13 26 14 12 15 14 16 13 17 6 18 7 19 3 20 2 21 1 22 4 23
REMARK SMILES IDX 5 24 20 25 22 26 21 27
REMARK H PARENT
ROOT
ATOM      1  N   UNL     1      89.970 111.351  77.999  1.00  0.00    -0.298 NA
ATOM      2  N   UNL     1      91.765 106.017  75.686  1.00  0.00    -0.287 N 
ATOM      3  C   UNL     1      90.080 109.967  77.476  1.00  0.00     0.091 C 
ATOM      4  C   UNL     1      89.418 108.920  78.413  1.00  0.00    -0.026 C 
ATOM      5  C   UNL     1      91.517 109.503  77.030  1.00  0.00     0.061 C 
ATOM      6  C   UNL     1      89.293 110.571  80.261  1.00  0.00     0.116 C 
ATOM      7  C   UNL     1      90.260 111.445  79.436  1.00  0.00     0.102 C 
ATOM      8  C   UNL     1      91.474 108.071  76.595  1.00  0.00    -0.019 A 
ATOM      9  C   UNL     1      89.366 107.537  77.895  1.00  0.00    -0.011 A 
ATOM     10  C   UNL     1      90.435 107.226  77.033  1.00  0.00     0.011 A 
ATOM     11  C   UNL     1      89.029 109.212  79.667  1.00  0.00    -0.007 C 
ATOM     12  C   UNL     1      90.600 105.959  76.472  1.00  0.00     0.056 A 
ATOM     13  C   UNL     1      92.277 107.318  75.782  1.00  0.00     0.099 A 
ATOM     14  C   UNL     1      90.714 112.338  77.229  1.00  0.00     0.106 C 
ATOM     15  C   UNL     1      88.439 106.541  78.192  1.00  0.00     0.009 A 
ATOM     16  C   UNL     1      89.656 104.958  76.776  1.00  0.00     0.027 A 
ATOM     17  C   UNL     1      88.586 105.273  77.633  1.00  0.00     0.003 A 
ENDROOT
BRANCH   6  18
ATOM     18  C   UNL     1      89.732 110.524  81.736  1.00  0.00     0.230 C 
ATOM     19  O   UNL     1      90.874 110.114  81.987  1.00  0.00    -0.274 OA
ATOM     20  N   UNL     1      88.873 110.890  82.773  1.00  0.00    -0.343 N 
BRANCH  20  21
ATOM     21  C   UNL     1      89.397 110.789  84.139  1.00  0.00     0.116 C 
ATOM     22  C   UNL     1      88.982 109.508  84.849  1.00  0.00     0.027 C 
ENDBRANCH  20  21
BRANCH  20  23
ATOM     23  C   UNL     1      87.513 111.425  82.631  1.00  0.00     0.116 C 
ATOM     24  C   UNL     1      86.475 110.362  82.308  1.00  0.00     0.027 C 
ENDBRANCH  20  23
ENDBRANCH   6  18
BRANCH   2  25
ATOM     25  C   UNL     1      92.398 105.026  74.901  1.00  0.00     0.227 C 
ATOM     26  O   UNL     1      93.428 104.502  75.315  1.00  0.00    -0.274 OA
ATOM     27  C   UNL     1      91.766 104.665  73.598  1.00  0.00     0.115 C 
ENDBRANCH   2  25
TORSDOF 4
ENDMDL
MODEL 10
REMARK VINA RESULT:    -7.041      2.148      7.955
REMARK INTER + INTRA:          -9.124
REMARK INTER:                  -8.613
REMARK INTRA:                  -0.511
REMARK UNBOUND:                -0.437
REMARK SMILES CCN(CC)C(=O)[C@@H]1C=C2c3cccc4c3c(cn4C(C)=O)C[C@H]2N(C)C1
REMARK SMILES IDX 25 1 19 2 24 3 10 4 23 5 8 6 27 7 17 8 11 9 16 10 9 11 15 12
REMARK SMILES IDX 18 13 26 14 12 15 14 16 13 17 6 18 7 19 3 20 2 21 1 22 4 23
REMARK SMILES IDX 5 24 20 25 22 26 21 27
REMARK H PARENT
ROOT
ATOM      1  N   UNL     1      90.303 110.980  77.685  1.00  0.00    -0.298 NA
ATOM      2  N   UNL     1      91.302 106.523  73.665  1.00  0.00    -0.287 N 
ATOM      3  C   UNL     1      90.221 109.816  76.769  1.00  0.00     0.091 C 
ATOM      4  C   UNL     1      89.599 108.564  77.448  1.00  0.00    -0.026 C 
ATOM      5  C   UNL     1      91.540 109.446  75.993  1.00  0.00     0.061 C 
ATOM      6  C   UNL     1      89.865 109.583  79.694  1.00  0.00     0.116 C 
ATOM      7  C   UNL     1      90.787 110.622  79.025  1.00  0.00     0.102 C 
ATOM      8  C   UNL     1      91.315 108.216  75.170  1.00  0.00    -0.019 A 
ATOM      9  C   UNL     1      89.358 107.406  76.562  1.00  0.00    -0.011 A 
ATOM     10  C   UNL     1      90.273 107.324  75.494  1.00  0.00     0.011 A 
ATOM     11  C   UNL     1      89.407 108.480  78.777  1.00  0.00    -0.007 C 
ATOM     12  C   UNL     1      90.250 106.280  74.568  1.00  0.00     0.056 A 
ATOM     13  C   UNL     1      91.934 107.709  74.059  1.00  0.00     0.099 A 
ATOM     14  C   UNL     1      91.022 112.120  77.134  1.00  0.00     0.106 C 
ATOM     15  C   UNL     1      88.396 106.409  76.692  1.00  0.00     0.009 A 
ATOM     16  C   UNL     1      89.271 105.277  74.706  1.00  0.00     0.027 A 
ATOM     17  C   UNL     1      88.356 105.364  75.770  1.00  0.00     0.003 A 
ENDROOT
BRANCH   6  18
ATOM     18  C   UNL     1      90.490 109.072  81.007  1.00  0.00     0.230 C 
ATOM     19  O   UNL     1      91.179 108.044  80.956  1.00  0.00    -0.274 OA
ATOM     20  N   UNL     1      90.267 109.711  82.227  1.00  0.00    -0.343 N 
BRANCH  20  21
ATOM     21  C   UNL     1      90.902 109.123  83.412  1.00  0.00     0.116 C 
ATOM     22  C   UNL     1      89.912 108.783  84.517  1.00  0.00     0.027 C 
ENDBRANCH  20  21
BRANCH  20  23
ATOM     23  C   UNL     1      89.507 110.950  82.437  1.00  0.00     0.116 C 
ATOM     24  C   UNL     1      88.001 110.744  82.435  1.00  0.00     0.027 C 
ENDBRANCH  20  23
ENDBRANCH   6  18
BRANCH   2  25
ATOM     25  C   UNL     1      91.736 105.788  72.537  1.00  0.00     0.227 C 
ATOM     26  O   UNL     1      92.105 104.627  72.686  1.00  0.00    -0.274 OA
ATOM     27  C   UNL     1      91.715 106.475  71.213  1.00  0.00     0.115 C 
ENDBRANCH   2  25
TORSDOF 4
ENDMDL
MODEL 11
REMARK VINA RESULT:    -6.997      2.659      7.132
REMARK INTER + INTRA:          -9.070
REMARK INTER:                  -9.748
REMARK INTRA:                   0.678
REMARK UNBOUND:                -0.437
REMARK SMILES CCN(CC)C(=O)[C@@H]1C=C2c3cccc4c3c(cn4C(C)=O)C[C@H]2N(C)C1
REMARK SMILES IDX 25 1 19 2 24 3 10 4 23 5 8 6 27 7 17 8 11 9 16 10 9 11 15 12
REMARK SMILES IDX 18 13 26 14 12 15 14 16 13 17 6 18 7 19 3 20 2 21 1 22 4 23
REMARK SMILES IDX 5 24 20 25 22 26 21 27
REMARK H PARENT
ROOT
ATOM      1  N   UNL     1      87.965 111.388  79.973  1.00  0.00    -0.298 NA
ATOM      2  N   UNL     1      92.130 110.925  75.561  1.00  0.00    -0.287 N 
ATOM      3  C   UNL     1      88.874 110.951  78.884  1.00  0.00     0.091 C 
ATOM      4  C   UNL     1      89.622 109.633  79.224  1.00  0.00    -0.026 C 
ATOM      5  C   UNL     1      89.865 112.041  78.327  1.00  0.00     0.061 C 
ATOM      6  C   UNL     1      88.978 109.818  81.613  1.00  0.00     0.116 C 
ATOM      7  C   UNL     1      88.570 111.273  81.306  1.00  0.00     0.102 C 
ATOM      8  C   UNL     1      90.756 111.430  77.291  1.00  0.00    -0.019 A 
ATOM      9  C   UNL     1      90.442 109.062  78.136  1.00  0.00    -0.011 A 
ATOM     10  C   UNL     1      90.964 110.036  77.263  1.00  0.00     0.011 A 
ATOM     11  C   UNL     1      89.635 109.104  80.461  1.00  0.00    -0.007 C 
ATOM     12  C   UNL     1      91.804 109.713  76.196  1.00  0.00     0.056 A 
ATOM     13  C   UNL     1      91.478 111.955  76.253  1.00  0.00     0.099 A 
ATOM     14  C   UNL     1      87.367 112.698  79.758  1.00  0.00     0.106 C 
ATOM     15  C   UNL     1      90.776 107.728  77.919  1.00  0.00     0.009 A 
ATOM     16  C   UNL     1      92.133 108.360  75.983  1.00  0.00     0.027 A 
ATOM     17  C   UNL     1      91.607 107.388  76.852  1.00  0.00     0.003 A 
ENDROOT
BRANCH   6  18
ATOM     18  C   UNL     1      89.787 109.748  82.922  1.00  0.00     0.230 C 
ATOM     19  O   UNL     1      89.594 110.632  83.768  1.00  0.00    -0.274 OA
ATOM     20  N   UNL     1      90.737 108.752  83.149  1.00  0.00    -0.343 N 
BRANCH  20  21
ATOM     21  C   UNL     1      91.456 108.797  84.427  1.00  0.00     0.116 C 
ATOM     22  C   UNL     1      90.538 108.706  85.637  1.00  0.00     0.027 C 
ENDBRANCH  20  21
BRANCH  20  23
ATOM     23  C   UNL     1      91.049 107.625  82.261  1.00  0.00     0.116 C 
ATOM     24  C   UNL     1      92.510 107.569  81.843  1.00  0.00     0.027 C 
ENDBRANCH  20  23
ENDBRANCH   6  18
BRANCH   2  25
ATOM     25  C   UNL     1      92.945 111.186  74.435  1.00  0.00     0.227 C 
ATOM     26  O   UNL     1      93.809 112.055  74.511  1.00  0.00    -0.274 OA
ATOM     27  C   UNL     1      92.707 110.376  73.205  1.00  0.00     0.115 C 
ENDBRANCH   2  25
TORSDOF 4
ENDMDL
MODEL 12
REMARK VINA RESULT:    -6.680      2.410      7.135
REMARK INTER + INTRA:          -8.680
REMARK INTER:                  -8.909
REMARK INTRA:                   0.229
REMARK UNBOUND:                -0.437
REMARK SMILES CCN(CC)C(=O)[C@@H]1C=C2c3cccc4c3c(cn4C(C)=O)C[C@H]2N(C)C1
REMARK SMILES IDX 25 1 19 2 24 3 10 4 23 5 8 6 27 7 17 8 11 9 16 10 9 11 15 12
REMARK SMILES IDX 18 13 26 14 12 15 14 16 13 17 6 18 7 19 3 20 2 21 1 22 4 23
REMARK SMILES IDX 5 24 20 25 22 26 21 27
REMARK H PARENT
ROOT
ATOM      1  N   UNL     1      87.752 111.952  81.184  1.00  0.00    -0.298 NA
ATOM      2  N   UNL     1      91.281 110.150  76.567  1.00  0.00    -0.287 N 
ATOM      3  C   UNL     1      88.395 111.250  80.046  1.00  0.00     0.091 C 
ATOM      4  C   UNL     1      88.625 109.740  80.328  1.00  0.00    -0.026 C 
ATOM      5  C   UNL     1      89.692 111.922  79.457  1.00  0.00     0.061 C 
ATOM      6  C   UNL     1      88.189 110.069  82.749  1.00  0.00     0.116 C 
ATOM      7  C   UNL     1      88.327 111.582  82.484  1.00  0.00     0.102 C 
ATOM      8  C   UNL     1      90.257 111.063  78.369  1.00  0.00    -0.019 A 
ATOM      9  C   UNL     1      89.136 108.945  79.192  1.00  0.00    -0.011 A 
ATOM     10  C   UNL     1      89.941 109.690  78.310  1.00  0.00     0.011 A 
ATOM     11  C   UNL     1      88.494 109.203  81.555  1.00  0.00    -0.007 C 
ATOM     12  C   UNL     1      90.562 109.119  77.199  1.00  0.00     0.056 A 
ATOM     13  C   UNL     1      91.078 111.323  77.305  1.00  0.00     0.099 A 
ATOM     14  C   UNL     1      87.664 113.396  81.019  1.00  0.00     0.106 C 
ATOM     15  C   UNL     1      88.951 107.588  78.939  1.00  0.00     0.009 A 
ATOM     16  C   UNL     1      90.367 107.747  76.948  1.00  0.00     0.027 A 
ATOM     17  C   UNL     1      89.558 107.005  77.828  1.00  0.00     0.003 A 
ENDROOT
BRANCH   6  18
ATOM     18  C   UNL     1      88.969 109.668  84.015  1.00  0.00     0.230 C 
ATOM     19  O   UNL     1      88.416 109.835  85.111  1.00  0.00    -0.274 OA
ATOM     20  N   UNL     1      90.270 109.169  83.952  1.00  0.00    -0.343 N 
BRANCH  20  21
ATOM     21  C   UNL     1      90.918 108.836  85.226  1.00  0.00     0.116 C 
ATOM     22  C   UNL     1      92.438 108.862  85.153  1.00  0.00     0.027 C 
ENDBRANCH  20  21
BRANCH  20  23
ATOM     23  C   UNL     1      91.038 108.886  82.733  1.00  0.00     0.116 C 
ATOM     24  C   UNL     1      91.065 107.412  82.363  1.00  0.00     0.027 C 
ENDBRANCH  20  23
ENDBRANCH   6  18
BRANCH   2  25
ATOM     25  C   UNL     1      92.089 110.133  75.406  1.00  0.00     0.227 C 
ATOM     26  O   UNL     1      91.850 110.926  74.499  1.00  0.00    -0.274 OA
ATOM     27  C   UNL     1      93.203 109.143  75.352  1.00  0.00     0.115 C 
ENDBRANCH   2  25
TORSDOF 4
ENDMDL
MODEL 13
REMARK VINA RESULT:    -6.483      1.259      1.424
REMARK INTER + INTRA:          -8.436
REMARK INTER:                  -7.858
REMARK INTRA:                  -0.579
REMARK UNBOUND:                -0.437
REMARK SMILES CCN(CC)C(=O)[C@@H]1C=C2c3cccc4c3c(cn4C(C)=O)C[C@H]2N(C)C1
REMARK SMILES IDX 25 1 19 2 24 3 10 4 23 5 8 6 27 7 17 8 11 9 16 10 9 11 15 12
REMARK SMILES IDX 18 13 26 14 12 15 14 16 13 17 6 18 7 19 3 20 2 21 1 22 4 23
REMARK SMILES IDX 5 24 20 25 22 26 21 27
REMARK H PARENT
ROOT
ATOM      1  N   UNL     1      91.321 110.963  76.693  1.00  0.00    -0.298 NA
ATOM      2  N   UNL     1      88.241 110.737  81.935  1.00  0.00    -0.287 N 
ATOM      3  C   UNL     1      90.843 110.733  78.078  1.00  0.00     0.091 C 
ATOM      4  C   UNL     1      90.977 109.250  78.518  1.00  0.00    -0.026 C 
ATOM      5  C   UNL     1      89.416 111.303  78.425  1.00  0.00     0.061 C 
ATOM      6  C   UNL     1      91.360 108.531  76.174  1.00  0.00     0.116 C 
ATOM      7  C   UNL     1      90.868 109.930  75.752  1.00  0.00     0.102 C 
ATOM      8  C   UNL     1      89.051 110.931  79.829  1.00  0.00    -0.019 A 
ATOM      9  C   UNL     1      90.649 108.966  79.931  1.00  0.00    -0.011 A 
ATOM     10  C   UNL     1      89.678 109.838  80.461  1.00  0.00     0.011 A 
ATOM     11  C   UNL     1      91.249 108.257  77.652  1.00  0.00    -0.007 C 
ATOM     12  C   UNL     1      89.191 109.714  81.763  1.00  0.00     0.056 A 
ATOM     13  C   UNL     1      88.176 111.461  80.738  1.00  0.00     0.099 A 
ATOM     14  C   UNL     1      91.066 112.306  76.191  1.00  0.00     0.106 C 
ATOM     15  C   UNL     1      91.142 107.948  80.742  1.00  0.00     0.009 A 
ATOM     16  C   UNL     1      89.698 108.682  82.577  1.00  0.00     0.027 A 
ATOM     17  C   UNL     1      90.672 107.816  82.048  1.00  0.00     0.003 A 
ENDROOT
BRANCH   6  18
ATOM     18  C   UNL     1      90.715 107.443  75.296  1.00  0.00     0.230 C 
ATOM     19  O   UNL     1      89.695 106.885  75.723  1.00  0.00    -0.274 OA
ATOM     20  N   UNL     1      91.269 107.057  74.075  1.00  0.00    -0.343 N 
BRANCH  20  21
ATOM     21  C   UNL     1      90.575 105.998  73.334  1.00  0.00     0.116 C 
ATOM     22  C   UNL     1      90.968 104.597  73.778  1.00  0.00     0.027 C 
ENDBRANCH  20  21
BRANCH  20  23
ATOM     23  C   UNL     1      92.447 107.647  73.426  1.00  0.00     0.116 C 
ATOM     24  C   UNL     1      92.101 108.574  72.271  1.00  0.00     0.027 C 
ENDBRANCH  20  23
ENDBRANCH   6  18
BRANCH   2  25
ATOM     25  C   UNL     1      87.442 111.075  83.052  1.00  0.00     0.227 C 
ATOM     26  O   UNL     1      86.225 110.929  82.983  1.00  0.00    -0.274 OA
ATOM     27  C   UNL     1      88.134 111.591  84.268  1.00  0.00     0.115 C 
ENDBRANCH   2  25
TORSDOF 4
ENDMDL
MODEL 14
REMARK VINA RESULT:    -6.420      2.218      3.157
REMARK INTER + INTRA:          -8.358
REMARK INTER:                  -8.775
REMARK INTRA:                   0.417
REMARK UNBOUND:                -0.437
REMARK SMILES CCN(CC)C(=O)[C@@H]1C=C2c3cccc4c3c(cn4C(C)=O)C[C@H]2N(C)C1
REMARK SMILES IDX 25 1 19 2 24 3 10 4 23 5 8 6 27 7 17 8 11 9 16 10 9 11 15 12
REMARK SMILES IDX 18 13 26 14 12 15 14 16 13 17 6 18 7 19 3 20 2 21 1 22 4 23
REMARK SMILES IDX 5 24 20 25 22 26 21 27
REMARK H PARENT
ROOT
ATOM      1  N   UNL     1      93.313 110.021  74.540  1.00  0.00    -0.298 NA
ATOM      2  N   UNL     1      89.331 111.267  78.969  1.00  0.00    -0.287 N 
ATOM      3  C   UNL     1      92.521 110.092  75.792  1.00  0.00     0.091 C 
ATOM      4  C   UNL     1      92.102 108.689  76.313  1.00  0.00    -0.026 C 
ATOM      5  C   UNL     1      91.300 111.085  75.788  1.00  0.00     0.061 C 
ATOM      6  C   UNL     1      92.706 107.643  74.145  1.00  0.00     0.116 C 
ATOM      7  C   UNL     1      92.762 109.071  73.565  1.00  0.00     0.102 C 
ATOM      8  C   UNL     1      90.565 110.989  77.089  1.00  0.00    -0.019 A 
ATOM      9  C   UNL     1      91.427 108.668  77.627  1.00  0.00    -0.011 A 
ATOM     10  C   UNL     1      90.686 109.836  77.891  1.00  0.00     0.011 A 
ATOM     11  C   UNL     1      92.223 107.574  75.571  1.00  0.00    -0.007 C 
ATOM     12  C   UNL     1      89.936 109.999  79.056  1.00  0.00     0.056 A 
ATOM     13  C   UNL     1      89.732 111.846  77.757  1.00  0.00     0.099 A 
ATOM     14  C   UNL     1      93.589 111.318  73.937  1.00  0.00     0.106 C 
ATOM     15  C   UNL     1      91.411 107.643  78.570  1.00  0.00     0.009 A 
ATOM     16  C   UNL     1      89.927 108.959  80.005  1.00  0.00     0.027 A 
ATOM     17  C   UNL     1      90.672 107.795  79.742  1.00  0.00     0.003 A 
ENDROOT
BRANCH   6  18
ATOM     18  C   UNL     1      91.946 106.701  73.192  1.00  0.00     0.230 C 
ATOM     19  O   UNL     1      92.173 106.803  71.978  1.00  0.00    -0.274 OA
ATOM     20  N   UNL     1      91.003 105.785  73.657  1.00  0.00    -0.343 N 
BRANCH  20  21
ATOM     21  C   UNL     1      90.332 104.952  72.653  1.00  0.00     0.116 C 
ATOM     22  C   UNL     1      90.953 103.570  72.507  1.00  0.00     0.027 C 
ENDBRANCH  20  21
BRANCH  20  23
ATOM     23  C   UNL     1      90.656 105.527  75.061  1.00  0.00     0.116 C 
ATOM     24  C   UNL     1      89.194 105.799  75.382  1.00  0.00     0.027 C 
ENDBRANCH  20  23
ENDBRANCH   6  18
BRANCH   2  25
ATOM     25  C   UNL     1      88.469 111.941  79.864  1.00  0.00     0.227 C 
ATOM     26  O   UNL     1      87.584 112.662  79.413  1.00  0.00    -0.274 OA
ATOM     27  C   UNL     1      88.685 111.730  81.325  1.00  0.00     0.115 C 
ENDBRANCH   2  25
TORSDOF 4
ENDMDL
MODEL 15
REMARK VINA RESULT:    -6.160      1.368      1.705
REMARK INTER + INTRA:          -8.038
REMARK INTER:                  -7.583
REMARK INTRA:                  -0.455
REMARK UNBOUND:                -0.437
REMARK SMILES CCN(CC)C(=O)[C@@H]1C=C2c3cccc4c3c(cn4C(C)=O)C[C@H]2N(C)C1
REMARK SMILES IDX 25 1 19 2 24 3 10 4 23 5 8 6 27 7 17 8 11 9 16 10 9 11 15 12
REMARK SMILES IDX 18 13 26 14 12 15 14 16 13 17 6 18 7 19 3 20 2 21 1 22 4 23
REMARK SMILES IDX 5 24 20 25 22 26 21 27
REMARK H PARENT
ROOT
ATOM      1  N   UNL     1      91.688 110.460  76.488  1.00  0.00    -0.298 NA
ATOM      2  N   UNL     1      88.104 110.621  81.402  1.00  0.00    -0.287 N 
ATOM      3  C   UNL     1      91.088 110.370  77.842  1.00  0.00     0.091 C 
ATOM      4  C   UNL     1      91.307 108.980  78.500  1.00  0.00    -0.026 C 
ATOM      5  C   UNL     1      89.588 110.831  77.971  1.00  0.00     0.061 C 
ATOM      6  C   UNL     1      91.997 107.999  76.328  1.00  0.00     0.116 C 
ATOM      7  C   UNL     1      91.431 109.271  75.666  1.00  0.00     0.102 C 
ATOM      8  C   UNL     1      89.111 110.614  79.373  1.00  0.00    -0.019 A 
ATOM      9  C   UNL     1      90.857 108.855  79.902  1.00  0.00    -0.011 A 
ATOM     10  C   UNL     1      89.762 109.686  80.211  1.00  0.00     0.011 A 
ATOM     11  C   UNL     1      91.755 107.914  77.813  1.00  0.00    -0.007 C 
ATOM     12  C   UNL     1      89.154 109.687  81.466  1.00  0.00     0.056 A 
ATOM     13  C   UNL     1      88.101 111.168  80.113  1.00  0.00     0.099 A 
ATOM     14  C   UNL     1      91.370 111.691  75.778  1.00  0.00     0.106 C 
ATOM     15  C   UNL     1      91.350 108.010  80.892  1.00  0.00     0.009 A 
ATOM     16  C   UNL     1      89.661 108.830  82.463  1.00  0.00     0.027 A 
ATOM     17  C   UNL     1      90.758 108.006  82.155  1.00  0.00     0.003 A 
ENDROOT
BRANCH   6  18
ATOM     18  C   UNL     1      91.548 106.742  75.559  1.00  0.00     0.230 C 
ATOM     19  O   UNL     1      92.396 106.146  74.881  1.00  0.00    -0.274 OA
ATOM     20  N   UNL     1      90.226 106.297  75.582  1.00  0.00    -0.343 N 
BRANCH  20  21
ATOM     21  C   UNL     1      89.914 105.097  74.797  1.00  0.00     0.116 C 
ATOM     22  C   UNL     1      88.473 105.056  74.309  1.00  0.00     0.027 C 
ENDBRANCH  20  21
BRANCH  20  23
ATOM     23  C   UNL     1      89.125 106.875  76.362  1.00  0.00     0.116 C 
ATOM     24  C   UNL     1      88.816 106.104  77.636  1.00  0.00     0.027 C 
ENDBRANCH  20  23
ENDBRANCH   6  18
BRANCH   2  25
ATOM     25  C   UNL     1      87.164 111.021  82.381  1.00  0.00     0.227 C 
ATOM     26  O   UNL     1      87.461 111.920  83.162  1.00  0.00    -0.274 OA
ATOM     27  C   UNL     1      85.848 110.320  82.404  1.00  0.00     0.115 C 
ENDBRANCH   2  25
TORSDOF 4
ENDMDL
MODEL 16
REMARK VINA RESULT:    -5.655      1.713      7.623
REMARK INTER + INTRA:          -7.415
REMARK INTER:                  -7.827
REMARK INTRA:                   0.412
REMARK UNBOUND:                -0.437
REMARK SMILES CCN(CC)C(=O)[C@@H]1C=C2c3cccc4c3c(cn4C(C)=O)C[C@H]2N(C)C1
REMARK SMILES IDX 25 1 19 2 24 3 10 4 23 5 8 6 27 7 17 8 11 9 16 10 9 11 15 12
REMARK SMILES IDX 18 13 26 14 12 15 14 16 13 17 6 18 7 19 3 20 2 21 1 22 4 23
REMARK SMILES IDX 5 24 20 25 22 26 21 27
REMARK H PARENT
ROOT
ATOM      1  N   UNL     1      90.391 108.964  81.621  1.00  0.00    -0.298 NA
ATOM      2  N   UNL     1      89.936 106.701  75.991  1.00  0.00    -0.287 N 
ATOM      3  C   UNL     1      90.503 108.659  80.173  1.00  0.00     0.091 C 
ATOM      4  C   UNL     1      90.343 109.922  79.283  1.00  0.00    -0.026 C 
ATOM      5  C   UNL     1      89.616 107.472  79.641  1.00  0.00     0.061 C 
ATOM      6  C   UNL     1      89.447 111.224  81.195  1.00  0.00     0.116 C 
ATOM      7  C   UNL     1      89.284 109.878  81.930  1.00  0.00     0.102 C 
ATOM      8  C   UNL     1      89.787 107.336  78.160  1.00  0.00    -0.019 A 
ATOM      9  C   UNL     1      90.577 109.722  77.838  1.00  0.00    -0.011 A 
ATOM     10  C   UNL     1      90.249 108.426  77.395  1.00  0.00     0.011 A 
ATOM     11  C   UNL     1      89.896 111.096  79.763  1.00  0.00    -0.007 C 
ATOM     12  C   UNL     1      90.352 108.043  76.057  1.00  0.00     0.056 A 
ATOM     13  C   UNL     1      89.595 106.298  77.289  1.00  0.00     0.099 A 
ATOM     14  C   UNL     1      90.378 107.786  82.477  1.00  0.00     0.106 C 
ATOM     15  C   UNL     1      91.025 110.651  76.902  1.00  0.00     0.009 A 
ATOM     16  C   UNL     1      90.808 108.989  75.118  1.00  0.00     0.027 A 
ATOM     17  C   UNL     1      91.140 110.281  75.563  1.00  0.00     0.003 A 
ENDROOT
BRANCH   6  18
ATOM     18  C   UNL     1      88.187 112.092  81.370  1.00  0.00     0.230 C 
ATOM     19  O   UNL     1      87.759 112.265  82.519  1.00  0.00    -0.274 OA
ATOM     20  N   UNL     1      87.513 112.642  80.278  1.00  0.00    -0.343 N 
BRANCH  20  21
ATOM     21  C   UNL     1      86.315 113.438  80.568  1.00  0.00     0.116 C 
ATOM     22  C   UNL     1      85.018 112.720  80.223  1.00  0.00     0.027 C 
ENDBRANCH  20  21
BRANCH  20  23
ATOM     23  C   UNL     1      87.917 112.554  78.869  1.00  0.00     0.116 C 
ATOM     24  C   UNL     1      87.493 113.756  78.041  1.00  0.00     0.027 C 
ENDBRANCH  20  23
ENDBRANCH   6  18
BRANCH   2  25
ATOM     25  C   UNL     1      89.837 105.819  74.890  1.00  0.00     0.227 C 
ATOM     26  O   UNL     1      88.730 105.420  74.540  1.00  0.00    -0.274 OA
ATOM     27  C   UNL     1      91.102 105.424  74.204  1.00  0.00     0.115 C 
ENDBRANCH   2  25
TORSDOF 4
ENDMDL
