MODEL 1
REMARK VINA RESULT:    -9.533      0.000      0.000
REMARK INTER + INTRA:         -12.186
REMARK INTER:                 -11.762
REMARK INTRA:                  -0.424
REMARK UNBOUND:                -0.424
REMARK SMILES CCN(CC)C(=O)[C@@H]1C=C2c3cccc4c3c(cn4C(C)=O)C[C@H]2N(C)C1
REMARK SMILES IDX 25 1 19 2 24 3 10 4 23 5 8 6 27 7 17 8 11 9 16 10 9 11 15 12
REMARK SMILES IDX 18 13 26 14 12 15 14 16 13 17 6 18 7 19 3 20 2 21 1 22 4 23
REMARK SMILES IDX 5 24 20 25 22 26 21 27
REMARK H PARENT
ROOT
ATOM      1  N   UNL     1     -13.461 -18.197  23.161  1.00  0.00    -0.298 NA
ATOM      2  N   UNL     1     -13.583 -15.324  17.798  1.00  0.00    -0.287 N 
ATOM      3  C   UNL     1     -13.542 -17.810  21.730  1.00  0.00     0.091 C 
ATOM      4  C   UNL     1     -12.642 -18.692  20.822  1.00  0.00    -0.026 C 
ATOM      5  C   UNL     1     -13.347 -16.281  21.411  1.00  0.00     0.061 C 
ATOM      6  C   UNL     1     -11.434 -19.590  22.795  1.00  0.00     0.116 C 
ATOM      7  C   UNL     1     -12.086 -18.454  23.608  1.00  0.00     0.102 C 
ATOM      8  C   UNL     1     -13.386 -16.065  19.930  1.00  0.00    -0.019 A 
ATOM      9  C   UNL     1     -12.771 -18.458  19.369  1.00  0.00    -0.011 A 
ATOM     10  C   UNL     1     -13.117 -17.131  19.048  1.00  0.00     0.011 A 
ATOM     11  C   UNL     1     -11.709 -19.527  21.315  1.00  0.00    -0.007 C 
ATOM     12  C   UNL     1     -13.243 -16.688  17.731  1.00  0.00     0.056 A 
ATOM     13  C   UNL     1     -13.661 -14.972  19.152  1.00  0.00     0.099 A 
ATOM     14  C   UNL     1     -14.166 -17.295  24.061  1.00  0.00     0.106 C 
ATOM     15  C   UNL     1     -12.554 -19.358  18.329  1.00  0.00     0.009 A 
ATOM     16  C   UNL     1     -13.024 -17.606  16.686  1.00  0.00     0.027 A 
ATOM     17  C   UNL     1     -12.684 -18.932  17.008  1.00  0.00     0.003 A 
ENDROOT
BRANCH   6  18
ATOM     18  C   UNL     1      -9.937 -19.712  23.138  1.00  0.00     0.230 C 
ATOM     19  O   UNL     1      -9.118 -19.312  22.299  1.00  0.00    -0.274 OA
ATOM     20  N   UNL     1      -9.499 -20.286  24.332  1.00  0.00    -0.343 N 
BRANCH  20  21
ATOM     21  C   UNL     1      -8.049 -20.361  24.541  1.00  0.00     0.116 C 
ATOM     22  C   UNL     1      -7.667 -20.834  25.936  1.00  0.00     0.027 C 
ENDBRANCH  20  21
BRANCH  20  23
ATOM     23  C   UNL     1     -10.346 -20.769  25.430  1.00  0.00     0.116 C 
ATOM     24  C   UNL     1     -10.930 -22.151  25.181  1.00  0.00     0.027 C 
ENDBRANCH  20  23
ENDBRANCH   6  18
BRANCH   2  25
ATOM     25  C   UNL     1     -13.828 -14.383  16.771  1.00  0.00     0.227 C 
ATOM     26  O   UNL     1     -13.071 -14.341  15.806  1.00  0.00    -0.274 OA
ATOM     27  C   UNL     1     -15.011 -13.487  16.920  1.00  0.00     0.115 C 
ENDBRANCH   2  25
TORSDOF 4
ENDMDL
MODEL 2
REMARK VINA RESULT:    -9.180      3.808      6.475
REMARK INTER + INTRA:         -11.750
REMARK INTER:                 -11.199
REMARK INTRA:                  -0.551
REMARK UNBOUND:                -0.424
REMARK SMILES CCN(CC)C(=O)[C@@H]1C=C2c3cccc4c3c(cn4C(C)=O)C[C@H]2N(C)C1
REMARK SMILES IDX 25 1 19 2 24 3 10 4 23 5 8 6 27 7 17 8 11 9 16 10 9 11 15 12
REMARK SMILES IDX 18 13 26 14 12 15 14 16 13 17 6 18 7 19 3 20 2 21 1 22 4 23
REMARK SMILES IDX 5 24 20 25 22 26 21 27
REMARK H PARENT
ROOT
ATOM      1  N   UNL     1     -11.979 -15.484  15.470  1.00  0.00    -0.298 NA
ATOM      2  N   UNL     1     -17.922 -14.609  14.499  1.00  0.00    -0.287 N 
ATOM      3  C   UNL     1     -13.421 -15.141  15.549  1.00  0.00     0.091 C 
ATOM      4  C   UNL     1     -14.085 -15.649  16.858  1.00  0.00    -0.026 C 
ATOM      5  C   UNL     1     -14.293 -15.508  14.290  1.00  0.00     0.061 C 
ATOM      6  C   UNL     1     -12.140 -17.113  17.342  1.00  0.00     0.116 C 
ATOM      7  C   UNL     1     -11.694 -16.863  15.887  1.00  0.00     0.102 C 
ATOM      8  C   UNL     1     -15.727 -15.166  14.552  1.00  0.00    -0.019 A 
ATOM      9  C   UNL     1     -15.485 -15.230  17.073  1.00  0.00    -0.011 A 
ATOM     10  C   UNL     1     -16.200 -15.045  15.874  1.00  0.00     0.011 A 
ATOM     11  C   UNL     1     -13.481 -16.519  17.688  1.00  0.00    -0.007 C 
ATOM     12  C   UNL     1     -17.550 -14.695  15.853  1.00  0.00     0.056 A 
ATOM     13  C   UNL     1     -16.790 -14.905  13.729  1.00  0.00     0.099 A 
ATOM     14  C   UNL     1     -11.362 -15.163  14.191  1.00  0.00     0.106 C 
ATOM     15  C   UNL     1     -16.155 -15.051  18.280  1.00  0.00     0.009 A 
ATOM     16  C   UNL     1     -18.219 -14.513  17.080  1.00  0.00     0.027 A 
ATOM     17  C   UNL     1     -17.502 -14.693  18.277  1.00  0.00     0.003 A 
ENDROOT
BRANCH   6  18
ATOM     18  C   UNL     1     -12.018 -18.607  17.696  1.00  0.00     0.230 C 
ATOM     19  O   UNL     1     -12.666 -19.416  17.017  1.00  0.00    -0.274 OA
ATOM     20  N   UNL     1     -11.240 -19.050  18.766  1.00  0.00    -0.343 N 
BRANCH  20  21
ATOM     21  C   UNL     1     -11.213 -20.495  19.017  1.00  0.00     0.116 C 
ATOM     22  C   UNL     1     -10.364 -20.881  20.219  1.00  0.00     0.027 C 
ENDBRANCH  20  21
BRANCH  20  23
ATOM     23  C   UNL     1     -10.395 -18.218  19.633  1.00  0.00     0.116 C 
ATOM     24  C   UNL     1      -9.212 -17.596  18.908  1.00  0.00     0.027 C 
ENDBRANCH  20  23
ENDBRANCH   6  18
BRANCH   2  25
ATOM     25  C   UNL     1     -19.165 -14.294  13.902  1.00  0.00     0.227 C 
ATOM     26  O   UNL     1     -20.014 -15.174  13.789  1.00  0.00    -0.274 OA
ATOM     27  C   UNL     1     -19.377 -12.891  13.443  1.00  0.00     0.115 C 
ENDBRANCH   2  25
TORSDOF 4
ENDMDL
MODEL 3
REMARK VINA RESULT:    -9.114      2.630      7.605
REMARK INTER + INTRA:         -11.669
REMARK INTER:                 -10.952
REMARK INTRA:                  -0.717
REMARK UNBOUND:                -0.424
REMARK SMILES CCN(CC)C(=O)[C@@H]1C=C2c3cccc4c3c(cn4C(C)=O)C[C@H]2N(C)C1
REMARK SMILES IDX 25 1 19 2 24 3 10 4 23 5 8 6 27 7 17 8 11 9 16 10 9 11 15 12
REMARK SMILES IDX 18 13 26 14 12 15 14 16 13 17 6 18 7 19 3 20 2 21 1 22 4 23
REMARK SMILES IDX 5 24 20 25 22 26 21 27
REMARK H PARENT
ROOT
ATOM      1  N   UNL     1     -12.007 -19.296  19.122  1.00  0.00    -0.298 NA
ATOM      2  N   UNL     1      -7.062 -19.961  22.605  1.00  0.00    -0.287 N 
ATOM      3  C   UNL     1     -10.999 -19.677  20.143  1.00  0.00     0.091 C 
ATOM      4  C   UNL     1     -11.558 -19.606  21.590  1.00  0.00    -0.026 C 
ATOM      5  C   UNL     1      -9.599 -18.964  20.038  1.00  0.00     0.061 C 
ATOM      6  C   UNL     1     -13.535 -18.318  20.822  1.00  0.00     0.116 C 
ATOM      7  C   UNL     1     -12.778 -18.104  19.496  1.00  0.00     0.102 C 
ATOM      8  C   UNL     1      -8.724 -19.400  21.172  1.00  0.00    -0.019 A 
ATOM      9  C   UNL     1     -10.658 -20.100  22.652  1.00  0.00    -0.011 A 
ATOM     10  C   UNL     1      -9.293 -19.927  22.348  1.00  0.00     0.011 A 
ATOM     11  C   UNL     1     -12.731 -19.017  21.887  1.00  0.00    -0.007 C 
ATOM     12  C   UNL     1      -8.278 -20.284  23.236  1.00  0.00     0.056 A 
ATOM     13  C   UNL     1      -7.367 -19.421  21.349  1.00  0.00     0.099 A 
ATOM     14  C   UNL     1     -11.476 -19.199  17.770  1.00  0.00     0.106 C 
ATOM     15  C   UNL     1     -11.000 -20.653  23.883  1.00  0.00     0.009 A 
ATOM     16  C   UNL     1      -8.633 -20.844  24.478  1.00  0.00     0.027 A 
ATOM     17  C   UNL     1      -9.996 -21.021  24.777  1.00  0.00     0.003 A 
ENDROOT
BRANCH   6  18
ATOM     18  C   UNL     1     -14.174 -17.000  21.299  1.00  0.00     0.230 C 
ATOM     19  O   UNL     1     -13.484 -15.973  21.251  1.00  0.00    -0.274 OA
ATOM     20  N   UNL     1     -15.473 -16.952  21.808  1.00  0.00    -0.343 N 
BRANCH  20  21
ATOM     21  C   UNL     1     -15.968 -15.643  22.246  1.00  0.00     0.116 C 
ATOM     22  C   UNL     1     -16.917 -14.995  21.248  1.00  0.00     0.027 C 
ENDBRANCH  20  21
BRANCH  20  23
ATOM     23  C   UNL     1     -16.417 -18.073  21.894  1.00  0.00     0.116 C 
ATOM     24  C   UNL     1     -16.536 -18.659  23.293  1.00  0.00     0.027 C 
ENDBRANCH  20  23
ENDBRANCH   6  18
BRANCH   2  25
ATOM     25  C   UNL     1      -5.727 -20.106  23.048  1.00  0.00     0.227 C 
ATOM     26  O   UNL     1      -5.393 -21.144  23.612  1.00  0.00    -0.274 OA
ATOM     27  C   UNL     1      -4.787 -18.976  22.796  1.00  0.00     0.115 C 
ENDBRANCH   2  25
TORSDOF 4
ENDMDL
MODEL 4
REMARK VINA RESULT:    -9.076      1.497      1.832
REMARK INTER + INTRA:         -11.622
REMARK INTER:                 -11.528
REMARK INTRA:                  -0.094
REMARK UNBOUND:                -0.424
REMARK SMILES CCN(CC)C(=O)[C@@H]1C=C2c3cccc4c3c(cn4C(C)=O)C[C@H]2N(C)C1
REMARK SMILES IDX 25 1 19 2 24 3 10 4 23 5 8 6 27 7 17 8 11 9 16 10 9 11 15 12
REMARK SMILES IDX 18 13 26 14 12 15 14 16 13 17 6 18 7 19 3 20 2 21 1 22 4 23
REMARK SMILES IDX 5 24 20 25 22 26 21 27
REMARK H PARENT
ROOT
ATOM      1  N   UNL     1     -12.876 -18.398  22.513  1.00  0.00    -0.298 NA
ATOM      2  N   UNL     1     -14.766 -14.998  17.833  1.00  0.00    -0.287 N 
ATOM      3  C   UNL     1     -13.418 -17.871  21.236  1.00  0.00     0.091 C 
ATOM      4  C   UNL     1     -12.841 -18.603  19.994  1.00  0.00    -0.026 C 
ATOM      5  C   UNL     1     -13.366 -16.308  21.050  1.00  0.00     0.061 C 
ATOM      6  C   UNL     1     -11.047 -19.632  21.366  1.00  0.00     0.116 C 
ATOM      7  C   UNL     1     -11.425 -18.623  22.469  1.00  0.00     0.102 C 
ATOM      8  C   UNL     1     -13.882 -15.943  19.692  1.00  0.00    -0.019 A 
ATOM      9  C   UNL     1     -13.434 -18.228  18.694  1.00  0.00    -0.011 A 
ATOM     10  C   UNL     1     -13.889 -16.896  18.654  1.00  0.00     0.011 A 
ATOM     11  C   UNL     1     -11.783 -19.432  20.067  1.00  0.00    -0.007 C 
ATOM     12  C   UNL     1     -14.439 -16.327  17.505  1.00  0.00     0.056 A 
ATOM     13  C   UNL     1     -14.412 -14.793  19.173  1.00  0.00     0.099 A 
ATOM     14  C   UNL     1     -13.272 -17.633  23.687  1.00  0.00     0.106 C 
ATOM     15  C   UNL     1     -13.544 -19.003  17.542  1.00  0.00     0.009 A 
ATOM     16  C   UNL     1     -14.549 -17.119  16.346  1.00  0.00     0.027 A 
ATOM     17  C   UNL     1     -14.099 -18.451  16.389  1.00  0.00     0.003 A 
ENDROOT
BRANCH   6  18
ATOM     18  C   UNL     1      -9.518 -19.706  21.202  1.00  0.00     0.230 C 
ATOM     19  O   UNL     1      -9.040 -19.404  20.099  1.00  0.00    -0.274 OA
ATOM     20  N   UNL     1      -8.685 -20.134  22.236  1.00  0.00    -0.343 N 
BRANCH  20  21
ATOM     21  C   UNL     1      -7.245 -20.178  21.957  1.00  0.00     0.116 C 
ATOM     22  C   UNL     1      -6.577 -18.813  22.029  1.00  0.00     0.027 C 
ENDBRANCH  20  21
BRANCH  20  23
ATOM     23  C   UNL     1      -9.099 -20.489  23.599  1.00  0.00     0.116 C 
ATOM     24  C   UNL     1      -7.941 -20.889  24.499  1.00  0.00     0.027 C 
ENDBRANCH  20  23
ENDBRANCH   6  18
BRANCH   2  25
ATOM     25  C   UNL     1     -15.345 -13.972  17.052  1.00  0.00     0.227 C 
ATOM     26  O   UNL     1     -14.681 -12.973  16.790  1.00  0.00    -0.274 OA
ATOM     27  C   UNL     1     -16.748 -14.166  16.582  1.00  0.00     0.115 C 
ENDBRANCH   2  25
TORSDOF 4
ENDMDL
MODEL 5
REMARK VINA RESULT:    -9.019      3.031      5.141
REMARK INTER + INTRA:         -11.552
REMARK INTER:                 -11.039
REMARK INTRA:                  -0.513
REMARK UNBOUND:                -0.424
REMARK SMILES CCN(CC)C(=O)[C@@H]1C=C2c3cccc4c3c(cn4C(C)=O)C[C@H]2N(C)C1
REMARK SMILES IDX 25 1 19 2 24 3 10 4 23 5 8 6 27 7 17 8 11 9 16 10 9 11 15 12
REMARK SMILES IDX 18 13 26 14 12 15 14 16 13 17 6 18 7 19 3 20 2 21 1 22 4 23
REMARK SMILES IDX 5 24 20 25 22 26 21 27
REMARK H PARENT
ROOT
ATOM      1  N   UNL     1     -12.477 -16.737  19.873  1.00  0.00    -0.298 NA
ATOM      2  N   UNL     1     -15.754 -15.013  15.045  1.00  0.00    -0.287 N 
ATOM      3  C   UNL     1     -13.317 -16.029  18.876  1.00  0.00     0.091 C 
ATOM      4  C   UNL     1     -14.597 -15.411  19.503  1.00  0.00    -0.026 C 
ATOM      5  C   UNL     1     -13.657 -16.827  17.561  1.00  0.00     0.061 C 
ATOM      6  C   UNL     1     -14.289 -16.740  21.576  1.00  0.00     0.116 C 
ATOM      7  C   UNL     1     -13.259 -17.577  20.789  1.00  0.00     0.102 C 
ATOM      8  C   UNL     1     -14.563 -16.010  16.694  1.00  0.00    -0.019 A 
ATOM      9  C   UNL     1     -15.415 -14.575  18.601  1.00  0.00    -0.011 A 
ATOM     10  C   UNL     1     -15.340 -14.975  17.252  1.00  0.00     0.011 A 
ATOM     11  C   UNL     1     -15.013 -15.712  20.747  1.00  0.00    -0.007 C 
ATOM     12  C   UNL     1     -16.072 -14.348  16.244  1.00  0.00     0.056 A 
ATOM     13  C   UNL     1     -14.833 -16.023  15.352  1.00  0.00     0.099 A 
ATOM     14  C   UNL     1     -11.353 -17.461  19.297  1.00  0.00     0.106 C 
ATOM     15  C   UNL     1     -16.250 -13.512  18.933  1.00  0.00     0.009 A 
ATOM     16  C   UNL     1     -16.912 -13.272  16.589  1.00  0.00     0.027 A 
ATOM     17  C   UNL     1     -16.983 -12.871  17.936  1.00  0.00     0.003 A 
ENDROOT
BRANCH   6  18
ATOM     18  C   UNL     1     -15.230 -17.657  22.379  1.00  0.00     0.230 C 
ATOM     19  O   UNL     1     -16.261 -18.058  21.821  1.00  0.00    -0.274 OA
ATOM     20  N   UNL     1     -14.967 -18.005  23.705  1.00  0.00    -0.343 N 
BRANCH  20  21
ATOM     21  C   UNL     1     -15.945 -18.871  24.372  1.00  0.00     0.116 C 
ATOM     22  C   UNL     1     -15.658 -19.070  25.854  1.00  0.00     0.027 C 
ENDBRANCH  20  21
BRANCH  20  23
ATOM     23  C   UNL     1     -13.777 -17.638  24.483  1.00  0.00     0.116 C 
ATOM     24  C   UNL     1     -12.577 -18.530  24.210  1.00  0.00     0.027 C 
ENDBRANCH  20  23
ENDBRANCH   6  18
BRANCH   2  25
ATOM     25  C   UNL     1     -16.207 -14.797  13.723  1.00  0.00     0.227 C 
ATOM     26  O   UNL     1     -15.383 -14.663  12.823  1.00  0.00    -0.274 OA
ATOM     27  C   UNL     1     -17.681 -14.748  13.495  1.00  0.00     0.115 C 
ENDBRANCH   2  25
TORSDOF 4
ENDMDL
MODEL 6
REMARK VINA RESULT:    -8.971      1.333      1.894
REMARK INTER + INTRA:         -11.492
REMARK INTER:                 -11.723
REMARK INTRA:                   0.231
REMARK UNBOUND:                -0.424
REMARK SMILES CCN(CC)C(=O)[C@@H]1C=C2c3cccc4c3c(cn4C(C)=O)C[C@H]2N(C)C1
REMARK SMILES IDX 25 1 19 2 24 3 10 4 23 5 8 6 27 7 17 8 11 9 16 10 9 11 15 12
REMARK SMILES IDX 18 13 26 14 12 15 14 16 13 17 6 18 7 19 3 20 2 21 1 22 4 23
REMARK SMILES IDX 5 24 20 25 22 26 21 27
REMARK H PARENT
ROOT
ATOM      1  N   UNL     1     -13.549 -18.109  23.127  1.00  0.00    -0.298 NA
ATOM      2  N   UNL     1     -13.479 -15.843  17.480  1.00  0.00    -0.287 N 
ATOM      3  C   UNL     1     -13.547 -17.885  21.660  1.00  0.00     0.091 C 
ATOM      4  C   UNL     1     -12.509 -18.774  20.922  1.00  0.00    -0.026 C 
ATOM      5  C   UNL     1     -13.453 -16.387  21.185  1.00  0.00     0.061 C 
ATOM      6  C   UNL     1     -11.392 -19.345  23.063  1.00  0.00     0.116 C 
ATOM      7  C   UNL     1     -12.197 -18.192  23.696  1.00  0.00     0.102 C 
ATOM      8  C   UNL     1     -13.392 -16.333  19.690  1.00  0.00    -0.019 A 
ATOM      9  C   UNL     1     -12.541 -18.707  19.446  1.00  0.00    -0.011 A 
ATOM     10  C   UNL     1     -12.967 -17.458  18.955  1.00  0.00     0.011 A 
ATOM     11  C   UNL     1     -11.553 -19.465  21.569  1.00  0.00    -0.007 C 
ATOM     12  C   UNL     1     -13.024 -17.170  17.591  1.00  0.00     0.056 A 
ATOM     13  C   UNL     1     -13.693 -15.358  18.778  1.00  0.00     0.099 A 
ATOM     14  C   UNL     1     -14.395 -17.185  23.868  1.00  0.00     0.106 C 
ATOM     15  C   UNL     1     -12.168 -19.689  18.532  1.00  0.00     0.009 A 
ATOM     16  C   UNL     1     -12.648 -18.170  16.674  1.00  0.00     0.027 A 
ATOM     17  C   UNL     1     -12.228 -19.419  17.165  1.00  0.00     0.003 A 
ENDROOT
BRANCH   6  18
ATOM     18  C   UNL     1      -9.923 -19.295  23.521  1.00  0.00     0.230 C 
ATOM     19  O   UNL     1      -9.700 -19.125  24.728  1.00  0.00    -0.274 OA
ATOM     20  N   UNL     1      -8.865 -19.397  22.618  1.00  0.00    -0.343 N 
BRANCH  20  21
ATOM     21  C   UNL     1      -7.508 -19.320  23.170  1.00  0.00     0.116 C 
ATOM     22  C   UNL     1      -6.829 -20.677  23.288  1.00  0.00     0.027 C 
ENDBRANCH  20  21
BRANCH  20  23
ATOM     23  C   UNL     1      -8.971 -19.634  21.173  1.00  0.00     0.116 C 
ATOM     24  C   UNL     1      -8.401 -18.504  20.330  1.00  0.00     0.027 C 
ENDBRANCH  20  23
ENDBRANCH   6  18
BRANCH   2  25
ATOM     25  C   UNL     1     -13.718 -15.042  16.340  1.00  0.00     0.227 C 
ATOM     26  O   UNL     1     -13.074 -14.008  16.190  1.00  0.00    -0.274 OA
ATOM     27  C   UNL     1     -14.749 -15.509  15.369  1.00  0.00     0.115 C 
ENDBRANCH   2  25
TORSDOF 4
ENDMDL
MODEL 7
REMARK VINA RESULT:    -8.890      1.312      1.540
REMARK INTER + INTRA:         -11.392
REMARK INTER:                 -10.805
REMARK INTRA:                  -0.587
REMARK UNBOUND:                -0.424
REMARK SMILES CCN(CC)C(=O)[C@@H]1C=C2c3cccc4c3c(cn4C(C)=O)C[C@H]2N(C)C1
REMARK SMILES IDX 25 1 19 2 24 3 10 4 23 5 8 6 27 7 17 8 11 9 16 10 9 11 15 12
REMARK SMILES IDX 18 13 26 14 12 15 14 16 13 17 6 18 7 19 3 20 2 21 1 22 4 23
REMARK SMILES IDX 5 24 20 25 22 26 21 27
REMARK H PARENT
ROOT
ATOM      1  N   UNL     1     -14.808 -17.787  22.540  1.00  0.00    -0.298 NA
ATOM      2  N   UNL     1     -13.096 -15.921  17.006  1.00  0.00    -0.287 N 
ATOM      3  C   UNL     1     -14.370 -17.666  21.127  1.00  0.00     0.091 C 
ATOM      4  C   UNL     1     -13.137 -18.554  20.806  1.00  0.00    -0.026 C 
ATOM      5  C   UNL     1     -14.174 -16.202  20.582  1.00  0.00     0.061 C 
ATOM      6  C   UNL     1     -12.703 -18.921  23.222  1.00  0.00     0.116 C 
ATOM      7  C   UNL     1     -13.688 -17.765  23.490  1.00  0.00     0.102 C 
ATOM      8  C   UNL     1     -13.666 -16.251  19.174  1.00  0.00    -0.019 A 
ATOM      9  C   UNL     1     -12.725 -18.593  19.388  1.00  0.00    -0.011 A 
ATOM     10  C   UNL     1     -13.013 -17.403  18.692  1.00  0.00     0.011 A 
ATOM     11  C   UNL     1     -12.404 -19.152  21.764  1.00  0.00    -0.007 C 
ATOM     12  C   UNL     1     -12.664 -17.214  17.355  1.00  0.00     0.056 A 
ATOM     13  C   UNL     1     -13.702 -15.357  18.137  1.00  0.00     0.099 A 
ATOM     14  C   UNL     1     -15.860 -16.853  22.918  1.00  0.00     0.106 C 
ATOM     15  C   UNL     1     -12.071 -19.618  18.709  1.00  0.00     0.009 A 
ATOM     16  C   UNL     1     -12.005 -18.257  16.676  1.00  0.00     0.027 A 
ATOM     17  C   UNL     1     -11.723 -19.447  17.370  1.00  0.00     0.003 A 
ENDROOT
BRANCH   6  18
ATOM     18  C   UNL     1     -11.441 -18.769  24.092  1.00  0.00     0.230 C 
ATOM     19  O   UNL     1     -11.064 -17.621  24.368  1.00  0.00    -0.274 OA
ATOM     20  N   UNL     1     -10.712 -19.874  24.533  1.00  0.00    -0.343 N 
BRANCH  20  21
ATOM     21  C   UNL     1      -9.519 -19.604  25.343  1.00  0.00     0.116 C 
ATOM     22  C   UNL     1      -8.298 -20.395  24.896  1.00  0.00     0.027 C 
ENDBRANCH  20  21
BRANCH  20  23
ATOM     23  C   UNL     1     -11.053 -21.286  24.317  1.00  0.00     0.116 C 
ATOM     24  C   UNL     1     -11.650 -21.959  25.542  1.00  0.00     0.027 C 
ENDBRANCH  20  23
ENDBRANCH   6  18
BRANCH   2  25
ATOM     25  C   UNL     1     -13.000 -15.215  15.785  1.00  0.00     0.227 C 
ATOM     26  O   UNL     1     -12.569 -14.065  15.792  1.00  0.00    -0.274 OA
ATOM     27  C   UNL     1     -13.427 -15.919  14.542  1.00  0.00     0.115 C 
ENDBRANCH   2  25
TORSDOF 4
ENDMDL
MODEL 8
REMARK VINA RESULT:    -8.801      2.139      8.167
REMARK INTER + INTRA:         -11.282
REMARK INTER:                 -10.835
REMARK INTRA:                  -0.448
REMARK UNBOUND:                -0.424
REMARK SMILES CCN(CC)C(=O)[C@@H]1C=C2c3cccc4c3c(cn4C(C)=O)C[C@H]2N(C)C1
REMARK SMILES IDX 25 1 19 2 24 3 10 4 23 5 8 6 27 7 17 8 11 9 16 10 9 11 15 12
REMARK SMILES IDX 18 13 26 14 12 15 14 16 13 17 6 18 7 19 3 20 2 21 1 22 4 23
REMARK SMILES IDX 5 24 20 25 22 26 21 27
REMARK H PARENT
ROOT
ATOM      1  N   UNL     1     -12.086 -20.075  19.194  1.00  0.00    -0.298 NA
ATOM      2  N   UNL     1      -7.514 -20.275  23.204  1.00  0.00    -0.287 N 
ATOM      3  C   UNL     1     -11.223 -20.150  20.399  1.00  0.00     0.091 C 
ATOM      4  C   UNL     1     -11.674 -19.170  21.517  1.00  0.00    -0.026 C 
ATOM      5  C   UNL     1      -9.671 -20.055  20.151  1.00  0.00     0.061 C 
ATOM      6  C   UNL     1     -13.141 -17.949  19.932  1.00  0.00     0.116 C 
ATOM      7  C   UNL     1     -12.405 -18.696  18.802  1.00  0.00     0.102 C 
ATOM      8  C   UNL     1      -8.948 -20.075  21.462  1.00  0.00    -0.019 A 
ATOM      9  C   UNL     1     -10.949 -19.283  22.800  1.00  0.00    -0.011 A 
ATOM     10  C   UNL     1      -9.616 -19.712  22.649  1.00  0.00     0.011 A 
ATOM     11  C   UNL     1     -12.575 -18.193  21.307  1.00  0.00    -0.007 C 
ATOM     12  C   UNL     1      -8.744 -19.839  23.730  1.00  0.00     0.056 A 
ATOM     13  C   UNL     1      -7.669 -20.408  21.818  1.00  0.00     0.099 A 
ATOM     14  C   UNL     1     -11.602 -20.862  18.068  1.00  0.00     0.106 C 
ATOM     15  C   UNL     1     -11.409 -18.979  24.078  1.00  0.00     0.009 A 
ATOM     16  C   UNL     1      -9.219 -19.532  25.020  1.00  0.00     0.027 A 
ATOM     17  C   UNL     1     -10.552 -19.108  25.169  1.00  0.00     0.003 A 
ENDROOT
BRANCH   6  18
ATOM     18  C   UNL     1     -13.291 -16.455  19.585  1.00  0.00     0.230 C 
ATOM     19  O   UNL     1     -12.676 -15.636  20.281  1.00  0.00    -0.274 OA
ATOM     20  N   UNL     1     -14.117 -16.019  18.549  1.00  0.00    -0.343 N 
BRANCH  20  21
ATOM     21  C   UNL     1     -14.191 -14.571  18.322  1.00  0.00     0.116 C 
ATOM     22  C   UNL     1     -15.611 -14.025  18.383  1.00  0.00     0.027 C 
ENDBRANCH  20  21
BRANCH  20  23
ATOM     23  C   UNL     1     -14.876 -16.867  17.622  1.00  0.00     0.116 C 
ATOM     24  C   UNL     1     -14.320 -16.865  16.206  1.00  0.00     0.027 C 
ENDBRANCH  20  23
ENDBRANCH   6  18
BRANCH   2  25
ATOM     25  C   UNL     1      -6.286 -20.561  23.845  1.00  0.00     0.227 C 
ATOM     26  O   UNL     1      -6.279 -21.316  24.813  1.00  0.00    -0.274 OA
ATOM     27  C   UNL     1      -5.053 -19.924  23.297  1.00  0.00     0.115 C 
ENDBRANCH   2  25
TORSDOF 4
ENDMDL
MODEL 9
REMARK VINA RESULT:    -8.777      1.813      8.176
REMARK INTER + INTRA:         -11.254
REMARK INTER:                 -10.729
REMARK INTRA:                  -0.524
REMARK UNBOUND:                -0.424
REMARK SMILES CCN(CC)C(=O)[C@@H]1C=C2c3cccc4c3c(cn4C(C)=O)C[C@H]2N(C)C1
REMARK SMILES IDX 25 1 19 2 24 3 10 4 23 5 8 6 27 7 17 8 11 9 16 10 9 11 15 12
REMARK SMILES IDX 18 13 26 14 12 15 14 16 13 17 6 18 7 19 3 20 2 21 1 22 4 23
REMARK SMILES IDX 5 24 20 25 22 26 21 27
REMARK H PARENT
ROOT
ATOM      1  N   UNL     1     -12.373 -19.545  19.162  1.00  0.00    -0.298 NA
ATOM      2  N   UNL     1     -10.300 -19.436  24.881  1.00  0.00    -0.287 N 
ATOM      3  C   UNL     1     -12.199 -19.538  20.635  1.00  0.00     0.091 C 
ATOM      4  C   UNL     1     -13.126 -18.511  21.341  1.00  0.00    -0.026 C 
ATOM      5  C   UNL     1     -10.719 -19.423  21.160  1.00  0.00     0.061 C 
ATOM      6  C   UNL     1     -13.640 -17.405  19.180  1.00  0.00     0.116 C 
ATOM      7  C   UNL     1     -12.455 -18.195  18.588  1.00  0.00     0.102 C 
ATOM      8  C   UNL     1     -10.716 -19.358  22.656  1.00  0.00    -0.019 A 
ATOM      9  C   UNL     1     -13.109 -18.540  22.819  1.00  0.00    -0.011 A 
ATOM     10  C   UNL     1     -11.871 -18.948  23.353  1.00  0.00     0.011 A 
ATOM     11  C   UNL     1     -13.807 -17.565  20.669  1.00  0.00    -0.007 C 
ATOM     12  C   UNL     1     -11.628 -18.999  24.725  1.00  0.00     0.056 A 
ATOM     13  C   UNL     1      -9.769 -19.645  23.602  1.00  0.00     0.099 A 
ATOM     14  C   UNL     1     -11.413 -20.379  18.454  1.00  0.00     0.106 C 
ATOM     15  C   UNL     1     -14.126 -18.179  23.698  1.00  0.00     0.009 A 
ATOM     16  C   UNL     1     -12.664 -18.635  25.608  1.00  0.00     0.027 A 
ATOM     17  C   UNL     1     -13.901 -18.233  25.073  1.00  0.00     0.003 A 
ENDROOT
BRANCH   6  18
ATOM     18  C   UNL     1     -13.594 -15.936  18.720  1.00  0.00     0.230 C 
ATOM     19  O   UNL     1     -13.143 -15.097  19.512  1.00  0.00    -0.274 OA
ATOM     20  N   UNL     1     -14.075 -15.538  17.472  1.00  0.00    -0.343 N 
BRANCH  20  21
ATOM     21  C   UNL     1     -13.993 -14.109  17.152  1.00  0.00     0.116 C 
ATOM     22  C   UNL     1     -15.355 -13.446  17.007  1.00  0.00     0.027 C 
ENDBRANCH  20  21
BRANCH  20  23
ATOM     23  C   UNL     1     -14.602 -16.417  16.421  1.00  0.00     0.116 C 
ATOM     24  C   UNL     1     -13.622 -16.655  15.283  1.00  0.00     0.027 C 
ENDBRANCH  20  23
ENDBRANCH   6  18
BRANCH   2  25
ATOM     25  C   UNL     1      -9.535 -19.662  26.049  1.00  0.00     0.227 C 
ATOM     26  O   UNL     1      -9.797 -19.028  27.068  1.00  0.00    -0.274 OA
ATOM     27  C   UNL     1      -8.441 -20.674  25.976  1.00  0.00     0.115 C 
ENDBRANCH   2  25
TORSDOF 4
ENDMDL
MODEL 10
REMARK VINA RESULT:    -8.586      1.702      8.169
REMARK INTER + INTRA:         -11.017
REMARK INTER:                 -10.548
REMARK INTRA:                  -0.469
REMARK UNBOUND:                -0.424
REMARK SMILES CCN(CC)C(=O)[C@@H]1C=C2c3cccc4c3c(cn4C(C)=O)C[C@H]2N(C)C1
REMARK SMILES IDX 25 1 19 2 24 3 10 4 23 5 8 6 27 7 17 8 11 9 16 10 9 11 15 12
REMARK SMILES IDX 18 13 26 14 12 15 14 16 13 17 6 18 7 19 3 20 2 21 1 22 4 23
REMARK SMILES IDX 5 24 20 25 22 26 21 27
REMARK H PARENT
ROOT
ATOM      1  N   UNL     1     -12.805 -19.155  18.119  1.00  0.00    -0.298 NA
ATOM      2  N   UNL     1      -9.190 -19.777  22.975  1.00  0.00    -0.287 N 
ATOM      3  C   UNL     1     -12.219 -19.327  19.472  1.00  0.00     0.091 C 
ATOM      4  C   UNL     1     -12.844 -18.365  20.519  1.00  0.00    -0.026 C 
ATOM      5  C   UNL     1     -10.647 -19.315  19.556  1.00  0.00     0.061 C 
ATOM      6  C   UNL     1     -13.883 -16.999  18.727  1.00  0.00     0.116 C 
ATOM      7  C   UNL     1     -12.965 -17.746  17.738  1.00  0.00     0.102 C 
ATOM      8  C   UNL     1     -10.216 -19.427  20.985  1.00  0.00    -0.019 A 
ATOM      9  C   UNL     1     -12.410 -18.568  21.917  1.00  0.00    -0.011 A 
ATOM     10  C   UNL     1     -11.099 -19.070  22.025  1.00  0.00     0.011 A 
ATOM     11  C   UNL     1     -13.630 -17.329  20.175  1.00  0.00    -0.007 C 
ATOM     12  C   UNL     1     -10.479 -19.289  23.255  1.00  0.00     0.056 A 
ATOM     13  C   UNL     1      -9.058 -19.848  21.582  1.00  0.00     0.099 A 
ATOM     14  C   UNL     1     -12.136 -19.927  17.080  1.00  0.00     0.106 C 
ATOM     15  C   UNL     1     -13.112 -18.286  23.086  1.00  0.00     0.009 A 
ATOM     16  C   UNL     1     -11.198 -19.003  24.433  1.00  0.00     0.027 A 
ATOM     17  C   UNL     1     -12.510 -18.507  24.323  1.00  0.00     0.003 A 
ENDROOT
BRANCH   6  18
ATOM     18  C   UNL     1     -13.881 -15.488  18.430  1.00  0.00     0.230 C 
ATOM     19  O   UNL     1     -13.310 -14.741  19.237  1.00  0.00    -0.274 OA
ATOM     20  N   UNL     1     -14.529 -14.955  17.315  1.00  0.00    -0.343 N 
BRANCH  20  21
ATOM     21  C   UNL     1     -14.473 -13.498  17.146  1.00  0.00     0.116 C 
ATOM     22  C   UNL     1     -15.836 -12.869  16.896  1.00  0.00     0.027 C 
ENDBRANCH  20  21
BRANCH  20  23
ATOM     23  C   UNL     1     -15.213 -15.711  16.259  1.00  0.00     0.116 C 
ATOM     24  C   UNL     1     -14.441 -15.759  14.951  1.00  0.00     0.027 C 
ENDBRANCH  20  23
ENDBRANCH   6  18
BRANCH   2  25
ATOM     25  C   UNL     1      -8.140 -20.160  23.841  1.00  0.00     0.227 C 
ATOM     26  O   UNL     1      -7.018 -19.692  23.664  1.00  0.00    -0.274 OA
ATOM     27  C   UNL     1      -8.461 -21.118  24.938  1.00  0.00     0.115 C 
ENDBRANCH   2  25
TORSDOF 4
ENDMDL
MODEL 11
REMARK VINA RESULT:    -8.578      4.381      9.645
REMARK INTER + INTRA:         -11.007
REMARK INTER:                 -10.442
REMARK INTRA:                  -0.565
REMARK UNBOUND:                -0.424
REMARK SMILES CCN(CC)C(=O)[C@@H]1C=C2c3cccc4c3c(cn4C(C)=O)C[C@H]2N(C)C1
REMARK SMILES IDX 25 1 19 2 24 3 10 4 23 5 8 6 27 7 17 8 11 9 16 10 9 11 15 12
REMARK SMILES IDX 18 13 26 14 12 15 14 16 13 17 6 18 7 19 3 20 2 21 1 22 4 23
REMARK SMILES IDX 5 24 20 25 22 26 21 27
REMARK H PARENT
ROOT
ATOM      1  N   UNL     1     -17.009 -13.726  18.032  1.00  0.00    -0.298 NA
ATOM      2  N   UNL     1     -12.211 -17.468  18.095  1.00  0.00    -0.287 N 
ATOM      3  C   UNL     1     -15.759 -14.476  17.759  1.00  0.00     0.091 C 
ATOM      4  C   UNL     1     -15.685 -15.002  16.299  1.00  0.00    -0.026 C 
ATOM      5  C   UNL     1     -15.385 -15.607  18.790  1.00  0.00     0.061 C 
ATOM      6  C   UNL     1     -18.100 -14.548  15.955  1.00  0.00     0.116 C 
ATOM      7  C   UNL     1     -18.203 -14.383  17.485  1.00  0.00     0.102 C 
ATOM      8  C   UNL     1     -14.144 -16.312  18.339  1.00  0.00    -0.019 A 
ATOM      9  C   UNL     1     -14.411 -15.642  15.910  1.00  0.00    -0.011 A 
ATOM     10  C   UNL     1     -13.754 -16.272  16.985  1.00  0.00     0.011 A 
ATOM     11  C   UNL     1     -16.746 -14.998  15.472  1.00  0.00    -0.007 C 
ATOM     12  C   UNL     1     -12.560 -16.974  16.824  1.00  0.00     0.056 A 
ATOM     13  C   UNL     1     -13.198 -17.050  18.997  1.00  0.00     0.099 A 
ATOM     14  C   UNL     1     -17.185 -13.354  19.429  1.00  0.00     0.106 C 
ATOM     15  C   UNL     1     -13.840 -15.722  14.643  1.00  0.00     0.009 A 
ATOM     16  C   UNL     1     -11.989 -17.049  15.539  1.00  0.00     0.027 A 
ATOM     17  C   UNL     1     -12.643 -16.414  14.468  1.00  0.00     0.003 A 
ENDROOT
BRANCH   6  18
ATOM     18  C   UNL     1     -19.261 -15.411  15.425  1.00  0.00     0.230 C 
ATOM     19  O   UNL     1     -19.342 -16.580  15.827  1.00  0.00    -0.274 OA
ATOM     20  N   UNL     1     -20.178 -14.922  14.494  1.00  0.00    -0.343 N 
BRANCH  20  21
ATOM     21  C   UNL     1     -21.232 -15.841  14.051  1.00  0.00     0.116 C 
ATOM     22  C   UNL     1     -22.605 -15.189  13.974  1.00  0.00     0.027 C 
ENDBRANCH  20  21
BRANCH  20  23
ATOM     23  C   UNL     1     -20.230 -13.557  13.956  1.00  0.00     0.116 C 
ATOM     24  C   UNL     1     -19.040 -13.207  13.076  1.00  0.00     0.027 C 
ENDBRANCH  20  23
ENDBRANCH   6  18
BRANCH   2  25
ATOM     25  C   UNL     1     -11.105 -18.245  18.510  1.00  0.00     0.227 C 
ATOM     26  O   UNL     1     -11.253 -19.452  18.682  1.00  0.00    -0.274 OA
ATOM     27  C   UNL     1      -9.804 -17.545  18.713  1.00  0.00     0.115 C 
ENDBRANCH   2  25
TORSDOF 4
ENDMDL
MODEL 12
REMARK VINA RESULT:    -8.571      1.794      2.335
REMARK INTER + INTRA:         -10.999
REMARK INTER:                 -10.760
REMARK INTRA:                  -0.240
REMARK UNBOUND:                -0.424
REMARK SMILES CCN(CC)C(=O)[C@@H]1C=C2c3cccc4c3c(cn4C(C)=O)C[C@H]2N(C)C1
REMARK SMILES IDX 25 1 19 2 24 3 10 4 23 5 8 6 27 7 17 8 11 9 16 10 9 11 15 12
REMARK SMILES IDX 18 13 26 14 12 15 14 16 13 17 6 18 7 19 3 20 2 21 1 22 4 23
REMARK SMILES IDX 5 24 20 25 22 26 21 27
REMARK H PARENT
ROOT
ATOM      1  N   UNL     1     -11.442 -19.530  23.479  1.00  0.00    -0.298 NA
ATOM      2  N   UNL     1     -14.273 -16.555  18.988  1.00  0.00    -0.287 N 
ATOM      3  C   UNL     1     -12.097 -19.100  22.218  1.00  0.00     0.091 C 
ATOM      4  C   UNL     1     -11.258 -19.454  20.959  1.00  0.00    -0.026 C 
ATOM      5  C   UNL     1     -12.598 -17.608  22.167  1.00  0.00     0.061 C 
ATOM      6  C   UNL     1      -9.260 -19.920  22.354  1.00  0.00     0.116 C 
ATOM      7  C   UNL     1     -10.006 -19.225  23.511  1.00  0.00     0.102 C 
ATOM      8  C   UNL     1     -13.168 -17.312  20.815  1.00  0.00    -0.019 A 
ATOM      9  C   UNL     1     -11.906 -19.181  19.659  1.00  0.00    -0.011 A 
ATOM     10  C   UNL     1     -12.804 -18.097  19.702  1.00  0.00     0.011 A 
ATOM     11  C   UNL     1      -9.978 -19.861  21.031  1.00  0.00    -0.007 C 
ATOM     12  C   UNL     1     -13.485 -17.644  18.572  1.00  0.00     0.056 A 
ATOM     13  C   UNL     1     -14.057 -16.376  20.361  1.00  0.00     0.099 A 
ATOM     14  C   UNL     1     -12.121 -19.077  24.685  1.00  0.00     0.106 C 
ATOM     15  C   UNL     1     -11.697 -19.824  18.442  1.00  0.00     0.009 A 
ATOM     16  C   UNL     1     -13.270 -18.302  17.345  1.00  0.00     0.027 A 
ATOM     17  C   UNL     1     -12.376 -19.388  17.306  1.00  0.00     0.003 A 
ENDROOT
BRANCH   6  18
ATOM     18  C   UNL     1      -7.799 -19.435  22.283  1.00  0.00     0.230 C 
ATOM     19  O   UNL     1      -7.545 -18.473  21.545  1.00  0.00    -0.274 OA
ATOM     20  N   UNL     1      -6.777 -20.069  22.990  1.00  0.00    -0.343 N 
BRANCH  20  21
ATOM     21  C   UNL     1      -5.423 -19.527  22.831  1.00  0.00     0.116 C 
ATOM     22  C   UNL     1      -4.412 -20.147  23.786  1.00  0.00     0.027 C 
ENDBRANCH  20  21
BRANCH  20  23
ATOM     23  C   UNL     1      -6.929 -21.191  23.925  1.00  0.00     0.116 C 
ATOM     24  C   UNL     1      -7.358 -20.763  25.319  1.00  0.00     0.027 C 
ENDBRANCH  20  23
ENDBRANCH   6  18
BRANCH   2  25
ATOM     25  C   UNL     1     -15.155 -15.724  18.260  1.00  0.00     0.227 C 
ATOM     26  O   UNL     1     -15.340 -15.948  17.067  1.00  0.00    -0.274 OA
ATOM     27  C   UNL     1     -15.822 -14.610  18.994  1.00  0.00     0.115 C 
ENDBRANCH   2  25
TORSDOF 4
ENDMDL
MODEL 13
REMARK VINA RESULT:    -8.525      3.071      5.464
REMARK INTER + INTRA:         -10.942
REMARK INTER:                 -10.483
REMARK INTRA:                  -0.459
REMARK UNBOUND:                -0.424
REMARK SMILES CCN(CC)C(=O)[C@@H]1C=C2c3cccc4c3c(cn4C(C)=O)C[C@H]2N(C)C1
REMARK SMILES IDX 25 1 19 2 24 3 10 4 23 5 8 6 27 7 17 8 11 9 16 10 9 11 15 12
REMARK SMILES IDX 18 13 26 14 12 15 14 16 13 17 6 18 7 19 3 20 2 21 1 22 4 23
REMARK SMILES IDX 5 24 20 25 22 26 21 27
REMARK H PARENT
ROOT
ATOM      1  N   UNL     1     -11.779 -16.418  16.239  1.00  0.00    -0.298 NA
ATOM      2  N   UNL     1     -17.744 -15.218  16.280  1.00  0.00    -0.287 N 
ATOM      3  C   UNL     1     -13.150 -15.916  16.505  1.00  0.00     0.091 C 
ATOM      4  C   UNL     1     -13.525 -15.975  18.012  1.00  0.00    -0.026 C 
ATOM      5  C   UNL     1     -14.297 -16.518  15.609  1.00  0.00     0.061 C 
ATOM      6  C   UNL     1     -11.587 -17.448  18.493  1.00  0.00     0.116 C 
ATOM      7  C   UNL     1     -11.468 -17.653  16.970  1.00  0.00     0.102 C 
ATOM      8  C   UNL     1     -15.620 -15.968  16.046  1.00  0.00    -0.019 A 
ATOM      9  C   UNL     1     -14.822 -15.367  18.374  1.00  0.00    -0.011 A 
ATOM     10  C   UNL     1     -15.779 -15.441  17.343  1.00  0.00     0.011 A 
ATOM     11  C   UNL     1     -12.789 -16.644  18.917  1.00  0.00    -0.007 C 
ATOM     12  C   UNL     1     -17.082 -14.969  17.496  1.00  0.00     0.056 A 
ATOM     13  C   UNL     1     -16.827 -15.830  15.415  1.00  0.00     0.099 A 
ATOM     14  C   UNL     1     -11.450 -16.525  14.824  1.00  0.00     0.106 C 
ATOM     15  C   UNL     1     -15.195 -14.796  19.588  1.00  0.00     0.009 A 
ATOM     16  C   UNL     1     -17.450 -14.391  18.726  1.00  0.00     0.027 A 
ATOM     17  C   UNL     1     -16.492 -14.312  19.753  1.00  0.00     0.003 A 
ENDROOT
BRANCH   6  18
ATOM     18  C   UNL     1     -11.455 -18.793  19.232  1.00  0.00     0.230 C 
ATOM     19  O   UNL     1     -12.403 -19.587  19.162  1.00  0.00    -0.274 OA
ATOM     20  N   UNL     1     -10.328 -19.109  19.992  1.00  0.00    -0.343 N 
BRANCH  20  21
ATOM     21  C   UNL     1     -10.322 -20.414  20.663  1.00  0.00     0.116 C 
ATOM     22  C   UNL     1     -10.952 -20.380  22.049  1.00  0.00     0.027 C 
ENDBRANCH  20  21
BRANCH  20  23
ATOM     23  C   UNL     1      -9.118 -18.290  20.140  1.00  0.00     0.116 C 
ATOM     24  C   UNL     1      -8.059 -18.930  21.023  1.00  0.00     0.027 C 
ENDBRANCH  20  23
ENDBRANCH   6  18
BRANCH   2  25
ATOM     25  C   UNL     1     -19.074 -14.947  15.882  1.00  0.00     0.227 C 
ATOM     26  O   UNL     1     -19.276 -14.132  14.986  1.00  0.00    -0.274 OA
ATOM     27  C   UNL     1     -20.169 -15.682  16.579  1.00  0.00     0.115 C 
ENDBRANCH   2  25
TORSDOF 4
ENDMDL
MODEL 14
REMARK VINA RESULT:    -8.326      2.746      4.570
REMARK INTER + INTRA:         -10.697
REMARK INTER:                 -10.408
REMARK INTRA:                  -0.289
REMARK UNBOUND:                -0.424
REMARK SMILES CCN(CC)C(=O)[C@@H]1C=C2c3cccc4c3c(cn4C(C)=O)C[C@H]2N(C)C1
REMARK SMILES IDX 25 1 19 2 24 3 10 4 23 5 8 6 27 7 17 8 11 9 16 10 9 11 15 12
REMARK SMILES IDX 18 13 26 14 12 15 14 16 13 17 6 18 7 19 3 20 2 21 1 22 4 23
REMARK SMILES IDX 5 24 20 25 22 26 21 27
REMARK H PARENT
ROOT
ATOM      1  N   UNL     1     -11.354 -18.325  20.371  1.00  0.00    -0.298 NA
ATOM      2  N   UNL     1     -13.128 -16.204  14.950  1.00  0.00    -0.287 N 
ATOM      3  C   UNL     1     -11.786 -17.507  19.210  1.00  0.00     0.091 C 
ATOM      4  C   UNL     1     -12.960 -16.551  19.557  1.00  0.00    -0.026 C 
ATOM      5  C   UNL     1     -12.067 -18.290  17.873  1.00  0.00     0.061 C 
ATOM      6  C   UNL     1     -13.391 -17.761  21.680  1.00  0.00     0.116 C 
ATOM      7  C   UNL     1     -12.481 -18.879  21.133  1.00  0.00     0.102 C 
ATOM      8  C   UNL     1     -12.558 -17.341  16.825  1.00  0.00    -0.019 A 
ATOM      9  C   UNL     1     -13.356 -15.607  18.492  1.00  0.00    -0.011 A 
ATOM     10  C   UNL     1     -13.135 -16.109  17.194  1.00  0.00     0.011 A 
ATOM     11  C   UNL     1     -13.663 -16.649  20.700  1.00  0.00    -0.007 C 
ATOM     12  C   UNL     1     -13.483 -15.397  16.046  1.00  0.00     0.056 A 
ATOM     13  C   UNL     1     -12.568 -17.385  15.457  1.00  0.00     0.099 A 
ATOM     14  C   UNL     1     -10.365 -19.343  20.046  1.00  0.00     0.106 C 
ATOM     15  C   UNL     1     -13.940 -14.351  18.628  1.00  0.00     0.009 A 
ATOM     16  C   UNL     1     -14.071 -14.126  16.194  1.00  0.00     0.027 A 
ATOM     17  C   UNL     1     -14.286 -13.623  17.490  1.00  0.00     0.003 A 
ENDROOT
BRANCH   6  18
ATOM     18  C   UNL     1     -14.668 -18.359  22.302  1.00  0.00     0.230 C 
ATOM     19  O   UNL     1     -15.494 -18.877  21.538  1.00  0.00    -0.274 OA
ATOM     20  N   UNL     1     -14.920 -18.294  23.673  1.00  0.00    -0.343 N 
BRANCH  20  21
ATOM     21  C   UNL     1     -16.177 -18.884  24.147  1.00  0.00     0.116 C 
ATOM     22  C   UNL     1     -16.023 -19.663  25.445  1.00  0.00     0.027 C 
ENDBRANCH  20  21
BRANCH  20  23
ATOM     23  C   UNL     1     -14.025 -17.745  24.699  1.00  0.00     0.116 C 
ATOM     24  C   UNL     1     -12.838 -18.644  25.010  1.00  0.00     0.027 C 
ENDBRANCH  20  23
ENDBRANCH   6  18
BRANCH   2  25
ATOM     25  C   UNL     1     -13.257 -15.980  13.560  1.00  0.00     0.227 C 
ATOM     26  O   UNL     1     -12.381 -16.392  12.804  1.00  0.00    -0.274 OA
ATOM     27  C   UNL     1     -14.468 -15.251  13.085  1.00  0.00     0.115 C 
ENDBRANCH   2  25
TORSDOF 4
ENDMDL
MODEL 15
REMARK VINA RESULT:    -8.312      3.575      6.532
REMARK INTER + INTRA:         -10.679
REMARK INTER:                 -10.191
REMARK INTRA:                  -0.488
REMARK UNBOUND:                -0.424
REMARK SMILES CCN(CC)C(=O)[C@@H]1C=C2c3cccc4c3c(cn4C(C)=O)C[C@H]2N(C)C1
REMARK SMILES IDX 25 1 19 2 24 3 10 4 23 5 8 6 27 7 17 8 11 9 16 10 9 11 15 12
REMARK SMILES IDX 18 13 26 14 12 15 14 16 13 17 6 18 7 19 3 20 2 21 1 22 4 23
REMARK SMILES IDX 5 24 20 25 22 26 21 27
REMARK H PARENT
ROOT
ATOM      1  N   UNL     1     -13.832 -16.730  22.326  1.00  0.00    -0.298 NA
ATOM      2  N   UNL     1     -12.358 -16.264  16.441  1.00  0.00    -0.287 N 
ATOM      3  C   UNL     1     -13.590 -16.299  20.927  1.00  0.00     0.091 C 
ATOM      4  C   UNL     1     -14.830 -15.610  20.292  1.00  0.00    -0.026 C 
ATOM      5  C   UNL     1     -12.984 -17.383  19.959  1.00  0.00     0.061 C 
ATOM      6  C   UNL     1     -16.291 -16.430  22.123  1.00  0.00     0.116 C 
ATOM      7  C   UNL     1     -15.137 -17.377  22.510  1.00  0.00     0.102 C 
ATOM      8  C   UNL     1     -12.867 -16.818  18.577  1.00  0.00    -0.019 A 
ATOM      9  C   UNL     1     -14.625 -15.031  18.949  1.00  0.00    -0.011 A 
ATOM     10  C   UNL     1     -13.658 -15.717  18.189  1.00  0.00     0.011 A 
ATOM     11  C   UNL     1     -16.049 -15.643  20.861  1.00  0.00    -0.007 C 
ATOM     12  C   UNL     1     -13.347 -15.363  16.876  1.00  0.00     0.056 A 
ATOM     13  C   UNL     1     -12.088 -17.141  17.499  1.00  0.00     0.099 A 
ATOM     14  C   UNL     1     -12.749 -17.518  22.900  1.00  0.00     0.106 C 
ATOM     15  C   UNL     1     -15.290 -13.957  18.364  1.00  0.00     0.009 A 
ATOM     16  C   UNL     1     -14.022 -14.272  16.294  1.00  0.00     0.027 A 
ATOM     17  C   UNL     1     -14.984 -13.585  17.056  1.00  0.00     0.003 A 
ENDROOT
BRANCH   6  18
ATOM     18  C   UNL     1     -17.635 -17.183  22.130  1.00  0.00     0.230 C 
ATOM     19  O   UNL     1     -17.603 -18.421  22.150  1.00  0.00    -0.274 OA
ATOM     20  N   UNL     1     -18.857 -16.512  22.077  1.00  0.00    -0.343 N 
BRANCH  20  21
ATOM     21  C   UNL     1     -20.070 -17.337  22.074  1.00  0.00     0.116 C 
ATOM     22  C   UNL     1     -21.020 -17.013  23.218  1.00  0.00     0.027 C 
ENDBRANCH  20  21
BRANCH  20  23
ATOM     23  C   UNL     1     -19.053 -15.057  22.084  1.00  0.00     0.116 C 
ATOM     24  C   UNL     1     -19.541 -14.505  20.754  1.00  0.00     0.027 C 
ENDBRANCH  20  23
ENDBRANCH   6  18
BRANCH   2  25
ATOM     25  C   UNL     1     -11.686 -16.367  15.201  1.00  0.00     0.227 C 
ATOM     26  O   UNL     1     -10.462 -16.463  15.190  1.00  0.00    -0.274 OA
ATOM     27  C   UNL     1     -12.515 -16.359  13.961  1.00  0.00     0.115 C 
ENDBRANCH   2  25
TORSDOF 4
ENDMDL
MODEL 16
REMARK VINA RESULT:    -8.112      2.282      4.103
REMARK INTER + INTRA:         -10.433
REMARK INTER:                  -9.982
REMARK INTRA:                  -0.451
REMARK UNBOUND:                -0.424
REMARK SMILES CCN(CC)C(=O)[C@@H]1C=C2c3cccc4c3c(cn4C(C)=O)C[C@H]2N(C)C1
REMARK SMILES IDX 25 1 19 2 24 3 10 4 23 5 8 6 27 7 17 8 11 9 16 10 9 11 15 12
REMARK SMILES IDX 18 13 26 14 12 15 14 16 13 17 6 18 7 19 3 20 2 21 1 22 4 23
REMARK SMILES IDX 5 24 20 25 22 26 21 27
REMARK H PARENT
ROOT
ATOM      1  N   UNL     1      -9.118 -19.623  22.621  1.00  0.00    -0.298 NA
ATOM      2  N   UNL     1     -12.826 -18.278  17.988  1.00  0.00    -0.287 N 
ATOM      3  C   UNL     1     -10.086 -19.015  21.675  1.00  0.00     0.091 C 
ATOM      4  C   UNL     1     -11.392 -18.549  22.375  1.00  0.00    -0.026 C 
ATOM      5  C   UNL     1     -10.402 -19.844  20.374  1.00  0.00     0.061 C 
ATOM      6  C   UNL     1     -10.823 -19.838  24.417  1.00  0.00     0.116 C 
ATOM      7  C   UNL     1      -9.748 -20.549  23.570  1.00  0.00     0.102 C 
ATOM      8  C   UNL     1     -11.442 -19.135  19.563  1.00  0.00    -0.019 A 
ATOM      9  C   UNL     1     -12.349 -17.811  21.524  1.00  0.00    -0.011 A 
ATOM     10  C   UNL     1     -12.300 -18.196  20.170  1.00  0.00     0.011 A 
ATOM     11  C   UNL     1     -11.704 -18.898  23.637  1.00  0.00    -0.007 C 
ATOM     12  C   UNL     1     -13.153 -17.656  19.208  1.00  0.00     0.056 A 
ATOM     13  C   UNL     1     -11.781 -19.176  18.238  1.00  0.00     0.099 A 
ATOM     14  C   UNL     1      -7.951 -20.213  21.980  1.00  0.00     0.106 C 
ATOM     15  C   UNL     1     -13.281 -16.852  21.910  1.00  0.00     0.009 A 
ATOM     16  C   UNL     1     -14.091 -16.684  19.606  1.00  0.00     0.027 A 
ATOM     17  C   UNL     1     -14.135 -16.297  20.957  1.00  0.00     0.003 A 
ENDROOT
BRANCH   6  18
ATOM     18  C   UNL     1     -11.609 -20.859  25.262  1.00  0.00     0.230 C 
ATOM     19  O   UNL     1     -11.570 -22.048  24.916  1.00  0.00    -0.274 OA
ATOM     20  N   UNL     1     -12.375 -20.471  26.362  1.00  0.00    -0.343 N 
BRANCH  20  21
ATOM     21  C   UNL     1     -13.092 -21.531  27.080  1.00  0.00     0.116 C 
ATOM     22  C   UNL     1     -14.561 -21.630  26.695  1.00  0.00     0.027 C 
ENDBRANCH  20  21
BRANCH  20  23
ATOM     23  C   UNL     1     -12.490 -19.114  26.910  1.00  0.00     0.116 C 
ATOM     24  C   UNL     1     -13.774 -18.405  26.508  1.00  0.00     0.027 C 
ENDBRANCH  20  23
ENDBRANCH   6  18
BRANCH   2  25
ATOM     25  C   UNL     1     -13.372 -18.113  16.694  1.00  0.00     0.227 C 
ATOM     26  O   UNL     1     -14.355 -18.774  16.371  1.00  0.00    -0.274 OA
ATOM     27  C   UNL     1     -12.715 -17.129  15.786  1.00  0.00     0.115 C 
ENDBRANCH   2  25
TORSDOF 4
ENDMDL
MODEL 17
REMARK VINA RESULT:    -8.096      4.105      7.096
REMARK INTER + INTRA:         -10.413
REMARK INTER:                  -9.936
REMARK INTRA:                  -0.477
REMARK UNBOUND:                -0.424
REMARK SMILES CCN(CC)C(=O)[C@@H]1C=C2c3cccc4c3c(cn4C(C)=O)C[C@H]2N(C)C1
REMARK SMILES IDX 25 1 19 2 24 3 10 4 23 5 8 6 27 7 17 8 11 9 16 10 9 11 15 12
REMARK SMILES IDX 18 13 26 14 12 15 14 16 13 17 6 18 7 19 3 20 2 21 1 22 4 23
REMARK SMILES IDX 5 24 20 25 22 26 21 27
REMARK H PARENT
ROOT
ATOM      1  N   UNL     1     -14.856 -16.273  22.382  1.00  0.00    -0.298 NA
ATOM      2  N   UNL     1     -13.489 -15.196  16.552  1.00  0.00    -0.287 N 
ATOM      3  C   UNL     1     -14.681 -15.714  21.019  1.00  0.00     0.091 C 
ATOM      4  C   UNL     1     -16.003 -15.149  20.431  1.00  0.00    -0.026 C 
ATOM      5  C   UNL     1     -13.944 -16.637  19.978  1.00  0.00     0.061 C 
ATOM      6  C   UNL     1     -17.335 -16.282  22.192  1.00  0.00     0.116 C 
ATOM      7  C   UNL     1     -16.066 -17.096  22.514  1.00  0.00     0.102 C 
ATOM      8  C   UNL     1     -13.910 -15.964  18.641  1.00  0.00    -0.019 A 
ATOM      9  C   UNL     1     -15.883 -14.453  19.133  1.00  0.00    -0.011 A 
ATOM     10  C   UNL     1     -14.839 -14.951  18.330  1.00  0.00     0.011 A 
ATOM     11  C   UNL     1     -17.205 -15.382  20.991  1.00  0.00    -0.007 C 
ATOM     12  C   UNL     1     -14.584 -14.465  17.047  1.00  0.00     0.056 A 
ATOM     13  C   UNL     1     -13.101 -16.105  17.545  1.00  0.00     0.099 A 
ATOM     14  C   UNL     1     -13.677 -16.952  22.902  1.00  0.00     0.106 C 
ATOM     15  C   UNL     1     -16.685 -13.435  18.625  1.00  0.00     0.009 A 
ATOM     16  C   UNL     1     -15.399 -13.433  16.543  1.00  0.00     0.027 A 
ATOM     17  C   UNL     1     -16.438 -12.933  17.348  1.00  0.00     0.003 A 
ENDROOT
BRANCH   6  18
ATOM     18  C   UNL     1     -18.569 -17.203  22.140  1.00  0.00     0.230 C 
ATOM     19  O   UNL     1     -18.378 -18.426  22.168  1.00  0.00    -0.274 OA
ATOM     20  N   UNL     1     -19.864 -16.694  22.025  1.00  0.00    -0.343 N 
BRANCH  20  21
ATOM     21  C   UNL     1     -20.959 -17.669  21.968  1.00  0.00     0.116 C 
ATOM     22  C   UNL     1     -21.964 -17.380  20.863  1.00  0.00     0.027 C 
ENDBRANCH  20  21
BRANCH  20  23
ATOM     23  C   UNL     1     -20.246 -15.277  22.014  1.00  0.00     0.116 C 
ATOM     24  C   UNL     1     -20.608 -14.737  23.389  1.00  0.00     0.027 C 
ENDBRANCH  20  23
ENDBRANCH   6  18
BRANCH   2  25
ATOM     25  C   UNL     1     -12.817 -15.121  15.310  1.00  0.00     0.227 C 
ATOM     26  O   UNL     1     -12.144 -14.126  15.053  1.00  0.00    -0.274 OA
ATOM     27  C   UNL     1     -12.961 -16.273  14.373  1.00  0.00     0.115 C 
ENDBRANCH   2  25
TORSDOF 4
ENDMDL
MODEL 18
REMARK VINA RESULT:    -8.043      1.740      7.993
REMARK INTER + INTRA:         -10.348
REMARK INTER:                 -10.117
REMARK INTRA:                  -0.231
REMARK UNBOUND:                -0.424
REMARK SMILES CCN(CC)C(=O)[C@@H]1C=C2c3cccc4c3c(cn4C(C)=O)C[C@H]2N(C)C1
REMARK SMILES IDX 25 1 19 2 24 3 10 4 23 5 8 6 27 7 17 8 11 9 16 10 9 11 15 12
REMARK SMILES IDX 18 13 26 14 12 15 14 16 13 17 6 18 7 19 3 20 2 21 1 22 4 23
REMARK SMILES IDX 5 24 20 25 22 26 21 27
REMARK H PARENT
ROOT
ATOM      1  N   UNL     1     -12.907 -19.247  17.918  1.00  0.00    -0.298 NA
ATOM      2  N   UNL     1     -11.401 -18.853  23.800  1.00  0.00    -0.287 N 
ATOM      3  C   UNL     1     -12.876 -19.185  19.400  1.00  0.00     0.091 C 
ATOM      4  C   UNL     1     -13.916 -18.187  19.978  1.00  0.00    -0.026 C 
ATOM      5  C   UNL     1     -11.460 -18.977  20.058  1.00  0.00     0.061 C 
ATOM      6  C   UNL     1     -14.273 -17.178  17.740  1.00  0.00     0.116 C 
ATOM      7  C   UNL     1     -13.000 -17.922  17.291  1.00  0.00     0.102 C 
ATOM      8  C   UNL     1     -11.605 -18.866  21.544  1.00  0.00    -0.019 A 
ATOM      9  C   UNL     1     -14.040 -18.170  21.451  1.00  0.00    -0.011 A 
ATOM     10  C   UNL     1     -12.840 -18.496  22.113  1.00  0.00     0.011 A 
ATOM     11  C   UNL     1     -14.575 -17.300  19.211  1.00  0.00    -0.007 C 
ATOM     12  C   UNL     1     -12.728 -18.491  23.504  1.00  0.00     0.056 A 
ATOM     13  C   UNL     1     -10.740 -19.072  22.585  1.00  0.00     0.099 A 
ATOM     14  C   UNL     1     -11.842 -20.051  17.334  1.00  0.00     0.106 C 
ATOM     15  C   UNL     1     -15.153 -17.836  22.217  1.00  0.00     0.009 A 
ATOM     16  C   UNL     1     -13.861 -18.155  24.271  1.00  0.00     0.027 A 
ATOM     17  C   UNL     1     -15.059 -17.835  23.608  1.00  0.00     0.003 A 
ENDROOT
BRANCH   6  18
ATOM     18  C   UNL     1     -14.256 -15.723  17.234  1.00  0.00     0.230 C 
ATOM     19  O   UNL     1     -13.288 -15.360  16.552  1.00  0.00    -0.274 OA
ATOM     20  N   UNL     1     -15.269 -14.818  17.556  1.00  0.00    -0.343 N 
BRANCH  20  21
ATOM     21  C   UNL     1     -15.136 -13.455  17.030  1.00  0.00     0.116 C 
ATOM     22  C   UNL     1     -16.442 -12.889  16.491  1.00  0.00     0.027 C 
ENDBRANCH  20  21
BRANCH  20  23
ATOM     23  C   UNL     1     -16.488 -15.110  18.322  1.00  0.00     0.116 C 
ATOM     24  C   UNL     1     -16.526 -14.431  19.681  1.00  0.00     0.027 C 
ENDBRANCH  20  23
ENDBRANCH   6  18
BRANCH   2  25
ATOM     25  C   UNL     1     -10.742 -19.002  25.042  1.00  0.00     0.227 C 
ATOM     26  O   UNL     1      -9.912 -18.164  25.383  1.00  0.00    -0.274 OA
ATOM     27  C   UNL     1     -11.101 -20.182  25.880  1.00  0.00     0.115 C 
ENDBRANCH   2  25
TORSDOF 4
ENDMDL
MODEL 19
REMARK VINA RESULT:    -7.994      2.776      7.406
REMARK INTER + INTRA:         -10.287
REMARK INTER:                 -10.070
REMARK INTRA:                  -0.216
REMARK UNBOUND:                -0.424
REMARK SMILES CCN(CC)C(=O)[C@@H]1C=C2c3cccc4c3c(cn4C(C)=O)C[C@H]2N(C)C1
REMARK SMILES IDX 25 1 19 2 24 3 10 4 23 5 8 6 27 7 17 8 11 9 16 10 9 11 15 12
REMARK SMILES IDX 18 13 26 14 12 15 14 16 13 17 6 18 7 19 3 20 2 21 1 22 4 23
REMARK SMILES IDX 5 24 20 25 22 26 21 27
REMARK H PARENT
ROOT
ATOM      1  N   UNL     1     -13.553 -19.070  18.933  1.00  0.00    -0.298 NA
ATOM      2  N   UNL     1      -8.163 -19.210  21.753  1.00  0.00    -0.287 N 
ATOM      3  C   UNL     1     -12.406 -19.297  19.846  1.00  0.00     0.091 C 
ATOM      4  C   UNL     1     -12.763 -19.021  21.333  1.00  0.00    -0.026 C 
ATOM      5  C   UNL     1     -11.051 -18.600  19.448  1.00  0.00     0.061 C 
ATOM      6  C   UNL     1     -14.856 -17.864  20.673  1.00  0.00     0.116 C 
ATOM      7  C   UNL     1     -14.294 -17.839  19.238  1.00  0.00     0.102 C 
ATOM      8  C   UNL     1     -10.018 -18.866  20.499  1.00  0.00    -0.019 A 
ATOM      9  C   UNL     1     -11.714 -19.356  22.318  1.00  0.00    -0.011 A 
ATOM     10  C   UNL     1     -10.408 -19.222  21.806  1.00  0.00     0.011 A 
ATOM     11  C   UNL     1     -13.898 -18.401  21.704  1.00  0.00    -0.007 C 
ATOM     12  C   UNL     1      -9.272 -19.444  22.585  1.00  0.00     0.056 A 
ATOM     13  C   UNL     1      -8.649 -18.857  20.487  1.00  0.00     0.099 A 
ATOM     14  C   UNL     1     -13.215 -19.165  17.519  1.00  0.00     0.106 C 
ATOM     15  C   UNL     1     -11.871 -19.727  23.650  1.00  0.00     0.009 A 
ATOM     16  C   UNL     1      -9.441 -19.822  23.931  1.00  0.00     0.027 A 
ATOM     17  C   UNL     1     -10.746 -19.960  24.439  1.00  0.00     0.003 A 
ENDROOT
BRANCH   6  18
ATOM     18  C   UNL     1     -15.455 -16.494  21.044  1.00  0.00     0.230 C 
ATOM     19  O   UNL     1     -14.830 -15.480  20.705  1.00  0.00    -0.274 OA
ATOM     20  N   UNL     1     -16.641 -16.380  21.770  1.00  0.00    -0.343 N 
BRANCH  20  21
ATOM     21  C   UNL     1     -17.105 -15.022  22.077  1.00  0.00     0.116 C 
ATOM     22  C   UNL     1     -17.681 -14.296  20.870  1.00  0.00     0.027 C 
ENDBRANCH  20  21
BRANCH  20  23
ATOM     23  C   UNL     1     -17.506 -17.483  22.207  1.00  0.00     0.116 C 
ATOM     24  C   UNL     1     -18.984 -17.227  21.963  1.00  0.00     0.027 C 
ENDBRANCH  20  23
ENDBRANCH   6  18
BRANCH   2  25
ATOM     25  C   UNL     1      -6.776 -19.286  22.021  1.00  0.00     0.227 C 
ATOM     26  O   UNL     1      -6.051 -18.352  21.688  1.00  0.00    -0.274 OA
ATOM     27  C   UNL     1      -6.269 -20.509  22.707  1.00  0.00     0.115 C 
ENDBRANCH   2  25
TORSDOF 4
ENDMDL
MODEL 20
REMARK VINA RESULT:    -7.939      3.427      8.491
REMARK INTER + INTRA:         -10.219
REMARK INTER:                  -9.543
REMARK INTRA:                  -0.676
REMARK UNBOUND:                -0.424
REMARK SMILES CCN(CC)C(=O)[C@@H]1C=C2c3cccc4c3c(cn4C(C)=O)C[C@H]2N(C)C1
REMARK SMILES IDX 25 1 19 2 24 3 10 4 23 5 8 6 27 7 17 8 11 9 16 10 9 11 15 12
REMARK SMILES IDX 18 13 26 14 12 15 14 16 13 17 6 18 7 19 3 20 2 21 1 22 4 23
REMARK SMILES IDX 5 24 20 25 22 26 21 27
REMARK H PARENT
ROOT
ATOM      1  N   UNL     1     -14.700 -18.750  20.272  1.00  0.00    -0.298 NA
ATOM      2  N   UNL     1     -11.120 -18.923  25.189  1.00  0.00    -0.287 N 
ATOM      3  C   UNL     1     -14.111 -18.902  21.625  1.00  0.00     0.091 C 
ATOM      4  C   UNL     1     -14.975 -18.237  22.731  1.00  0.00    -0.026 C 
ATOM      5  C   UNL     1     -12.594 -18.505  21.772  1.00  0.00     0.061 C 
ATOM      6  C   UNL     1     -16.299 -17.005  21.032  1.00  0.00     0.116 C 
ATOM      7  C   UNL     1     -15.207 -17.395  20.016  1.00  0.00     0.102 C 
ATOM      8  C   UNL     1     -12.171 -18.646  23.202  1.00  0.00    -0.019 A 
ATOM      9  C   UNL     1     -14.525 -18.462  24.120  1.00  0.00    -0.011 A 
ATOM     10  C   UNL     1     -13.131 -18.627  24.233  1.00  0.00     0.011 A 
ATOM     11  C   UNL     1     -15.993 -17.402  22.452  1.00  0.00    -0.007 C 
ATOM     12  C   UNL     1     -12.496 -18.805  25.462  1.00  0.00     0.056 A 
ATOM     13  C   UNL     1     -10.953 -18.820  23.802  1.00  0.00     0.099 A 
ATOM     14  C   UNL     1     -13.842 -19.222  19.194  1.00  0.00     0.106 C 
ATOM     15  C   UNL     1     -15.294 -18.482  25.281  1.00  0.00     0.009 A 
ATOM     16  C   UNL     1     -13.281 -18.827  26.631  1.00  0.00     0.027 A 
ATOM     17  C   UNL     1     -14.674 -18.667  26.516  1.00  0.00     0.003 A 
ENDROOT
BRANCH   6  18
ATOM     18  C   UNL     1     -16.676 -15.519  20.876  1.00  0.00     0.230 C 
ATOM     19  O   UNL     1     -15.779 -14.725  20.562  1.00  0.00    -0.274 OA
ATOM     20  N   UNL     1     -17.972 -15.059  21.114  1.00  0.00    -0.343 N 
BRANCH  20  21
ATOM     21  C   UNL     1     -18.207 -13.620  20.949  1.00  0.00     0.116 C 
ATOM     22  C   UNL     1     -18.716 -12.945  22.215  1.00  0.00     0.027 C 
ENDBRANCH  20  21
BRANCH  20  23
ATOM     23  C   UNL     1     -19.140 -15.880  21.457  1.00  0.00     0.116 C 
ATOM     24  C   UNL     1     -20.171 -15.961  20.342  1.00  0.00     0.027 C 
ENDBRANCH  20  23
ENDBRANCH   6  18
BRANCH   2  25
ATOM     25  C   UNL     1     -10.021 -19.114  26.058  1.00  0.00     0.227 C 
ATOM     26  O   UNL     1      -9.877 -18.359  27.015  1.00  0.00    -0.274 OA
ATOM     27  C   UNL     1      -9.090 -20.241  25.760  1.00  0.00     0.115 C 
ENDBRANCH   2  25
TORSDOF 4
ENDMDL
