MODEL 1
REMARK VINA RESULT:    -8.628      0.000      0.000
REMARK INTER + INTRA:         -11.366
REMARK INTER:                 -10.645
REMARK INTRA:                  -0.721
REMARK UNBOUND:                -0.721
REMARK SMILES CCN(CC)C(=O)[C@@H]1C=C2c3cccc4c3c(cn4C(C)=O)C[C@H]2N(C)C1
REMARK SMILES IDX 25 1 19 2 24 3 10 4 23 5 8 6 27 7 17 8 11 9 16 10 9 11 15 12
REMARK SMILES IDX 18 13 26 14 12 15 14 16 13 17 6 18 7 19 3 20 2 21 1 22 4 23
REMARK SMILES IDX 5 24 20 25 22 26 21 27
REMARK H PARENT
ROOT
ATOM      1  N   UNL     1      90.750 120.035 120.973  1.00  0.00    -0.298 NA
ATOM      2  N   UNL     1      93.105 120.798 115.415  1.00  0.00    -0.287 N 
ATOM      3  C   UNL     1      91.543 120.425 119.781  1.00  0.00     0.091 C 
ATOM      4  C   UNL     1      91.750 121.961 119.679  1.00  0.00    -0.026 C 
ATOM      5  C   UNL     1      91.073 119.821 118.405  1.00  0.00     0.061 C 
ATOM      6  C   UNL     1      89.994 122.367 121.385  1.00  0.00     0.116 C 
ATOM      7  C   UNL     1      89.580 120.895 121.190  1.00  0.00     0.102 C 
ATOM      8  C   UNL     1      91.925 120.363 117.299  1.00  0.00    -0.019 A 
ATOM      9  C   UNL     1      92.643 122.418 118.595  1.00  0.00    -0.011 A 
ATOM     10  C   UNL     1      92.632 121.570 117.470  1.00  0.00     0.011 A 
ATOM     11  C   UNL     1      91.067 122.838 120.438  1.00  0.00    -0.007 C 
ATOM     12  C   UNL     1      93.368 121.845 116.318  1.00  0.00     0.056 A 
ATOM     13  C   UNL     1      92.220 119.911 116.041  1.00  0.00     0.099 A 
ATOM     14  C   UNL     1      90.403 118.621 121.018  1.00  0.00     0.106 C 
ATOM     15  C   UNL     1      93.425 123.569 118.551  1.00  0.00     0.009 A 
ATOM     16  C   UNL     1      94.159 123.010 116.283  1.00  0.00     0.027 A 
ATOM     17  C   UNL     1      94.174 123.853 117.409  1.00  0.00     0.003 A 
ENDROOT
BRANCH   6  18
ATOM     18  C   UNL     1      88.753 123.279 121.412  1.00  0.00     0.230 C 
ATOM     19  O   UNL     1      87.833 123.025 120.623  1.00  0.00    -0.274 OA
ATOM     20  N   UNL     1      88.668 124.383 122.262  1.00  0.00    -0.343 N 
BRANCH  20  21
ATOM     21  C   UNL     1      87.443 125.187 122.187  1.00  0.00     0.116 C 
ATOM     22  C   UNL     1      87.007 125.744 123.534  1.00  0.00     0.027 C 
ENDBRANCH  20  21
BRANCH  20  23
ATOM     23  C   UNL     1      89.657 124.787 123.269  1.00  0.00     0.116 C 
ATOM     24  C   UNL     1      90.686 125.776 122.744  1.00  0.00     0.027 C 
ENDBRANCH  20  23
ENDBRANCH   6  18
BRANCH   2  25
ATOM     25  C   UNL     1      93.582 120.571 114.103  1.00  0.00     0.227 C 
ATOM     26  O   UNL     1      92.774 120.388 113.197  1.00  0.00    -0.274 OA
ATOM     27  C   UNL     1      95.058 120.570 113.892  1.00  0.00     0.115 C 
ENDBRANCH   2  25
TORSDOF 4
ENDMDL
MODEL 2
REMARK VINA RESULT:    -8.339      2.892      8.120
REMARK INTER + INTRA:         -11.009
REMARK INTER:                 -10.397
REMARK INTRA:                  -0.612
REMARK UNBOUND:                -0.721
REMARK SMILES CCN(CC)C(=O)[C@@H]1C=C2c3cccc4c3c(cn4C(C)=O)C[C@H]2N(C)C1
REMARK SMILES IDX 25 1 19 2 24 3 10 4 23 5 8 6 27 7 17 8 11 9 16 10 9 11 15 12
REMARK SMILES IDX 18 13 26 14 12 15 14 16 13 17 6 18 7 19 3 20 2 21 1 22 4 23
REMARK SMILES IDX 5 24 20 25 22 26 21 27
REMARK H PARENT
ROOT
ATOM      1  N   UNL     1      88.185 119.908 121.377  1.00  0.00    -0.298 NA
ATOM      2  N   UNL     1      88.072 124.988 124.724  1.00  0.00    -0.287 N 
ATOM      3  C   UNL     1      88.161 121.300 121.889  1.00  0.00     0.091 C 
ATOM      4  C   UNL     1      89.246 122.196 121.231  1.00  0.00    -0.026 C 
ATOM      5  C   UNL     1      88.159 121.466 123.455  1.00  0.00     0.061 C 
ATOM      6  C   UNL     1      90.412 120.207 120.314  1.00  0.00     0.116 C 
ATOM      7  C   UNL     1      89.543 119.361 121.266  1.00  0.00     0.102 C 
ATOM      8  C   UNL     1      88.206 122.920 123.809  1.00  0.00    -0.019 A 
ATOM      9  C   UNL     1      89.198 123.629 121.588  1.00  0.00    -0.011 A 
ATOM     10  C   UNL     1      88.693 123.863 122.882  1.00  0.00     0.011 A 
ATOM     11  C   UNL     1      90.247 121.695 120.485  1.00  0.00    -0.007 C 
ATOM     12  C   UNL     1      88.608 125.142 123.433  1.00  0.00     0.056 A 
ATOM     13  C   UNL     1      87.839 123.621 124.926  1.00  0.00     0.099 A 
ATOM     14  C   UNL     1      87.289 119.000 122.082  1.00  0.00     0.106 C 
ATOM     15  C   UNL     1      89.623 124.719 120.833  1.00  0.00     0.009 A 
ATOM     16  C   UNL     1      89.037 126.239 122.660  1.00  0.00     0.027 A 
ATOM     17  C   UNL     1      89.536 126.004 121.367  1.00  0.00     0.003 A 
ENDROOT
BRANCH   6  18
ATOM     18  C   UNL     1      91.879 119.741 120.362  1.00  0.00     0.230 C 
ATOM     19  O   UNL     1      92.238 119.063 121.334  1.00  0.00    -0.274 OA
ATOM     20  N   UNL     1      92.797 120.093 119.372  1.00  0.00    -0.343 N 
BRANCH  20  21
ATOM     21  C   UNL     1      94.171 119.603 119.533  1.00  0.00     0.116 C 
ATOM     22  C   UNL     1      95.174 120.711 119.820  1.00  0.00     0.027 C 
ENDBRANCH  20  21
BRANCH  20  23
ATOM     23  C   UNL     1      92.513 120.858 118.151  1.00  0.00     0.116 C 
ATOM     24  C   UNL     1      92.231 119.982 116.940  1.00  0.00     0.027 C 
ENDBRANCH  20  23
ENDBRANCH   6  18
BRANCH   2  25
ATOM     25  C   UNL     1      87.776 125.947 125.720  1.00  0.00     0.227 C 
ATOM     26  O   UNL     1      88.665 126.307 126.486  1.00  0.00    -0.274 OA
ATOM     27  C   UNL     1      86.383 126.477 125.781  1.00  0.00     0.115 C 
ENDBRANCH   2  25
TORSDOF 4
ENDMDL
MODEL 3
REMARK VINA RESULT:    -8.323      1.765      2.144
REMARK INTER + INTRA:         -10.990
REMARK INTER:                 -10.213
REMARK INTRA:                  -0.777
REMARK UNBOUND:                -0.721
REMARK SMILES CCN(CC)C(=O)[C@@H]1C=C2c3cccc4c3c(cn4C(C)=O)C[C@H]2N(C)C1
REMARK SMILES IDX 25 1 19 2 24 3 10 4 23 5 8 6 27 7 17 8 11 9 16 10 9 11 15 12
REMARK SMILES IDX 18 13 26 14 12 15 14 16 13 17 6 18 7 19 3 20 2 21 1 22 4 23
REMARK SMILES IDX 5 24 20 25 22 26 21 27
REMARK H PARENT
ROOT
ATOM      1  N   UNL     1      93.334 120.387 120.373  1.00  0.00    -0.298 NA
ATOM      2  N   UNL     1      94.760 121.228 114.517  1.00  0.00    -0.287 N 
ATOM      3  C   UNL     1      93.767 120.905 119.051  1.00  0.00     0.091 C 
ATOM      4  C   UNL     1      93.139 122.285 118.716  1.00  0.00    -0.026 C 
ATOM      5  C   UNL     1      93.635 119.910 117.837  1.00  0.00     0.061 C 
ATOM      6  C   UNL     1      91.487 122.042 120.551  1.00  0.00     0.116 C 
ATOM      7  C   UNL     1      91.895 120.556 120.611  1.00  0.00     0.102 C 
ATOM      8  C   UNL     1      94.043 120.600 116.572  1.00  0.00    -0.019 A 
ATOM      9  C   UNL     1      93.627 122.929 117.479  1.00  0.00    -0.011 A 
ATOM     10  C   UNL     1      94.022 122.007 116.490  1.00  0.00     0.011 A 
ATOM     11  C   UNL     1      92.125 122.813 119.426  1.00  0.00    -0.007 C 
ATOM     12  C   UNL     1      94.469 122.406 115.230  1.00  0.00     0.056 A 
ATOM     13  C   UNL     1      94.488 120.143 115.361  1.00  0.00     0.099 A 
ATOM     14  C   UNL     1      93.776 119.027 120.652  1.00  0.00     0.106 C 
ATOM     15  C   UNL     1      93.692 124.288 117.184  1.00  0.00     0.009 A 
ATOM     16  C   UNL     1      94.534 123.783 114.942  1.00  0.00     0.027 A 
ATOM     17  C   UNL     1      94.145 124.703 115.932  1.00  0.00     0.003 A 
ENDROOT
BRANCH   6  18
ATOM     18  C   UNL     1      89.954 122.185 120.604  1.00  0.00     0.230 C 
ATOM     19  O   UNL     1      89.278 121.420 119.902  1.00  0.00    -0.274 OA
ATOM     20  N   UNL     1      89.332 123.163 121.380  1.00  0.00    -0.343 N 
BRANCH  20  21
ATOM     21  C   UNL     1      87.866 123.212 121.338  1.00  0.00     0.116 C 
ATOM     22  C   UNL     1      87.218 123.016 122.702  1.00  0.00     0.027 C 
ENDBRANCH  20  21
BRANCH  20  23
ATOM     23  C   UNL     1      89.994 124.111 122.284  1.00  0.00     0.116 C 
ATOM     24  C   UNL     1      90.359 125.429 121.618  1.00  0.00     0.027 C 
ENDBRANCH  20  23
ENDBRANCH   6  18
BRANCH   2  25
ATOM     25  C   UNL     1      95.241 121.043 113.201  1.00  0.00     0.227 C 
ATOM     26  O   UNL     1      96.301 121.568 112.872  1.00  0.00    -0.274 OA
ATOM     27  C   UNL     1      94.424 120.205 112.276  1.00  0.00     0.115 C 
ENDBRANCH   2  25
TORSDOF 4
ENDMDL
MODEL 4
REMARK VINA RESULT:    -8.088      1.819      2.188
REMARK INTER + INTRA:         -10.700
REMARK INTER:                 -10.340
REMARK INTRA:                  -0.360
REMARK UNBOUND:                -0.721
REMARK SMILES CCN(CC)C(=O)[C@@H]1C=C2c3cccc4c3c(cn4C(C)=O)C[C@H]2N(C)C1
REMARK SMILES IDX 25 1 19 2 24 3 10 4 23 5 8 6 27 7 17 8 11 9 16 10 9 11 15 12
REMARK SMILES IDX 18 13 26 14 12 15 14 16 13 17 6 18 7 19 3 20 2 21 1 22 4 23
REMARK SMILES IDX 5 24 20 25 22 26 21 27
REMARK H PARENT
ROOT
ATOM      1  N   UNL     1      92.697 120.254 120.668  1.00  0.00    -0.298 NA
ATOM      2  N   UNL     1      94.568 121.126 114.944  1.00  0.00    -0.287 N 
ATOM      3  C   UNL     1      93.287 120.752 119.401  1.00  0.00     0.091 C 
ATOM      4  C   UNL     1      92.938 122.240 119.125  1.00  0.00    -0.026 C 
ATOM      5  C   UNL     1      93.045 119.864 118.124  1.00  0.00     0.061 C 
ATOM      6  C   UNL     1      91.172 122.207 120.867  1.00  0.00     0.116 C 
ATOM      7  C   UNL     1      91.301 120.670 120.853  1.00  0.00     0.102 C 
ATOM      8  C   UNL     1      93.639 120.533 116.923  1.00  0.00    -0.019 A 
ATOM      9  C   UNL     1      93.601 122.848 117.952  1.00  0.00    -0.011 A 
ATOM     10  C   UNL     1      93.876 121.922 116.927  1.00  0.00     0.011 A 
ATOM     11  C   UNL     1      91.999 122.907 119.820  1.00  0.00    -0.007 C 
ATOM     12  C   UNL     1      94.455 122.298 115.715  1.00  0.00     0.056 A 
ATOM     13  C   UNL     1      94.059 120.066 115.707  1.00  0.00     0.099 A 
ATOM     14  C   UNL     1      92.870 118.824 120.882  1.00  0.00     0.106 C 
ATOM     15  C   UNL     1      93.926 124.186 117.745  1.00  0.00     0.009 A 
ATOM     16  C   UNL     1      94.784 123.652 115.515  1.00  0.00     0.027 A 
ATOM     17  C   UNL     1      94.514 124.575 116.542  1.00  0.00     0.003 A 
ENDROOT
BRANCH   6  18
ATOM     18  C   UNL     1      89.689 122.625 120.861  1.00  0.00     0.230 C 
ATOM     19  O   UNL     1      89.281 123.291 119.899  1.00  0.00    -0.274 OA
ATOM     20  N   UNL     1      88.830 122.308 121.913  1.00  0.00    -0.343 N 
BRANCH  20  21
ATOM     21  C   UNL     1      87.443 122.774 121.803  1.00  0.00     0.116 C 
ATOM     22  C   UNL     1      86.949 123.491 123.051  1.00  0.00     0.027 C 
ENDBRANCH  20  21
BRANCH  20  23
ATOM     23  C   UNL     1      89.158 121.501 123.095  1.00  0.00     0.116 C 
ATOM     24  C   UNL     1      88.471 120.145 123.113  1.00  0.00     0.027 C 
ENDBRANCH  20  23
ENDBRANCH   6  18
BRANCH   2  25
ATOM     25  C   UNL     1      95.079 120.925 113.641  1.00  0.00     0.227 C 
ATOM     26  O   UNL     1      96.247 121.222 113.404  1.00  0.00    -0.274 OA
ATOM     27  C   UNL     1      94.158 120.352 112.617  1.00  0.00     0.115 C 
ENDBRANCH   2  25
TORSDOF 4
ENDMDL
MODEL 5
REMARK VINA RESULT:    -8.082      1.579      2.022
REMARK INTER + INTRA:         -10.693
REMARK INTER:                 -10.094
REMARK INTRA:                  -0.598
REMARK UNBOUND:                -0.721
REMARK SMILES CCN(CC)C(=O)[C@@H]1C=C2c3cccc4c3c(cn4C(C)=O)C[C@H]2N(C)C1
REMARK SMILES IDX 25 1 19 2 24 3 10 4 23 5 8 6 27 7 17 8 11 9 16 10 9 11 15 12
REMARK SMILES IDX 18 13 26 14 12 15 14 16 13 17 6 18 7 19 3 20 2 21 1 22 4 23
REMARK SMILES IDX 5 24 20 25 22 26 21 27
REMARK H PARENT
ROOT
ATOM      1  N   UNL     1      90.394 121.464 122.685  1.00  0.00    -0.298 NA
ATOM      2  N   UNL     1      92.427 120.411 117.048  1.00  0.00    -0.287 N 
ATOM      3  C   UNL     1      91.123 121.442 121.393  1.00  0.00     0.091 C 
ATOM      4  C   UNL     1      91.362 122.865 120.818  1.00  0.00    -0.026 C 
ATOM      5  C   UNL     1      90.556 120.471 120.291  1.00  0.00     0.061 C 
ATOM      6  C   UNL     1      89.723 123.842 122.405  1.00  0.00     0.116 C 
ATOM      7  C   UNL     1      89.261 122.398 122.689  1.00  0.00     0.102 C 
ATOM      8  C   UNL     1      91.352 120.616 119.031  1.00  0.00    -0.019 A 
ATOM      9  C   UNL     1      92.200 122.934 119.603  1.00  0.00    -0.011 A 
ATOM     10  C   UNL     1      92.098 121.788 118.792  1.00  0.00     0.011 A 
ATOM     11  C   UNL     1      90.749 123.958 121.308  1.00  0.00    -0.007 C 
ATOM     12  C   UNL     1      92.771 121.669 117.575  1.00  0.00     0.056 A 
ATOM     13  C   UNL     1      91.559 119.793 117.957  1.00  0.00     0.099 A 
ATOM     14  C   UNL     1      90.014 120.146 123.176  1.00  0.00     0.106 C 
ATOM     15  C   UNL     1      93.007 123.984 119.173  1.00  0.00     0.009 A 
ATOM     16  C   UNL     1      93.587 122.735 117.149  1.00  0.00     0.027 A 
ATOM     17  C   UNL     1      93.692 123.877 117.963  1.00  0.00     0.003 A 
ENDROOT
BRANCH   6  18
ATOM     18  C   UNL     1      88.510 124.771 122.215  1.00  0.00     0.230 C 
ATOM     19  O   UNL     1      87.639 124.426 121.405  1.00  0.00    -0.274 OA
ATOM     20  N   UNL     1      88.397 125.985 122.895  1.00  0.00    -0.343 N 
BRANCH  20  21
ATOM     21  C   UNL     1      87.204 126.793 122.621  1.00  0.00     0.116 C 
ATOM     22  C   UNL     1      87.335 127.653 121.372  1.00  0.00     0.027 C 
ENDBRANCH  20  21
BRANCH  20  23
ATOM     23  C   UNL     1      89.325 126.508 123.905  1.00  0.00     0.116 C 
ATOM     24  C   UNL     1      88.692 127.528 124.839  1.00  0.00     0.027 C 
ENDBRANCH  20  23
ENDBRANCH   6  18
BRANCH   2  25
ATOM     25  C   UNL     1      92.818 119.778 115.845  1.00  0.00     0.227 C 
ATOM     26  O   UNL     1      93.799 119.039 115.849  1.00  0.00    -0.274 OA
ATOM     27  C   UNL     1      92.001 120.043 114.626  1.00  0.00     0.115 C 
ENDBRANCH   2  25
TORSDOF 4
ENDMDL
MODEL 6
REMARK VINA RESULT:    -7.813      1.597      8.001
REMARK INTER + INTRA:         -10.360
REMARK INTER:                 -10.132
REMARK INTRA:                  -0.228
REMARK UNBOUND:                -0.721
REMARK SMILES CCN(CC)C(=O)[C@@H]1C=C2c3cccc4c3c(cn4C(C)=O)C[C@H]2N(C)C1
REMARK SMILES IDX 25 1 19 2 24 3 10 4 23 5 8 6 27 7 17 8 11 9 16 10 9 11 15 12
REMARK SMILES IDX 18 13 26 14 12 15 14 16 13 17 6 18 7 19 3 20 2 21 1 22 4 23
REMARK SMILES IDX 5 24 20 25 22 26 21 27
REMARK H PARENT
ROOT
ATOM      1  N   UNL     1      94.006 122.920 118.265  1.00  0.00    -0.298 NA
ATOM      2  N   UNL     1      88.880 122.540 121.522  1.00  0.00    -0.287 N 
ATOM      3  C   UNL     1      92.882 122.524 119.150  1.00  0.00     0.091 C 
ATOM      4  C   UNL     1      92.363 121.091 118.850  1.00  0.00    -0.026 C 
ATOM      5  C   UNL     1      91.691 123.548 119.263  1.00  0.00     0.061 C 
ATOM      6  C   UNL     1      93.595 121.035 116.697  1.00  0.00     0.116 C 
ATOM      7  C   UNL     1      93.784 122.557 116.860  1.00  0.00     0.102 C 
ATOM      8  C   UNL     1      90.613 122.975 120.130  1.00  0.00    -0.019 A 
ATOM      9  C   UNL     1      91.336 120.572 119.777  1.00  0.00    -0.011 A 
ATOM     10  C   UNL     1      90.523 121.582 120.327  1.00  0.00     0.011 A 
ATOM     11  C   UNL     1      92.720 120.405 117.749  1.00  0.00    -0.007 C 
ATOM     12  C   UNL     1      89.462 121.303 121.189  1.00  0.00     0.056 A 
ATOM     13  C   UNL     1      89.602 123.541 120.859  1.00  0.00     0.099 A 
ATOM     14  C   UNL     1      94.414 124.310 118.410  1.00  0.00     0.106 C 
ATOM     15  C   UNL     1      91.071 119.248 120.115  1.00  0.00     0.009 A 
ATOM     16  C   UNL     1      89.203 119.961 121.527  1.00  0.00     0.027 A 
ATOM     17  C   UNL     1      90.020 118.954 120.982  1.00  0.00     0.003 A 
ENDROOT
BRANCH   6  18
ATOM     18  C   UNL     1      93.168 120.694 115.256  1.00  0.00     0.230 C 
ATOM     19  O   UNL     1      92.032 120.230 115.085  1.00  0.00    -0.274 OA
ATOM     20  N   UNL     1      94.032 120.859 114.173  1.00  0.00    -0.343 N 
BRANCH  20  21
ATOM     21  C   UNL     1      93.519 120.485 112.850  1.00  0.00     0.116 C 
ATOM     22  C   UNL     1      94.618 120.258 111.822  1.00  0.00     0.027 C 
ENDBRANCH  20  21
BRANCH  20  23
ATOM     23  C   UNL     1      95.386 121.426 114.215  1.00  0.00     0.116 C 
ATOM     24  C   UNL     1      95.434 122.904 113.861  1.00  0.00     0.027 C 
ENDBRANCH  20  23
ENDBRANCH   6  18
BRANCH   2  25
ATOM     25  C   UNL     1      87.779 122.846 122.355  1.00  0.00     0.227 C 
ATOM     26  O   UNL     1      86.647 122.551 121.981  1.00  0.00    -0.274 OA
ATOM     27  C   UNL     1      88.060 123.515 123.658  1.00  0.00     0.115 C 
ENDBRANCH   2  25
TORSDOF 4
ENDMDL
MODEL 7
REMARK VINA RESULT:    -7.354      2.229      3.102
REMARK INTER + INTRA:          -9.794
REMARK INTER:                  -9.238
REMARK INTRA:                  -0.556
REMARK UNBOUND:                -0.721
REMARK SMILES CCN(CC)C(=O)[C@@H]1C=C2c3cccc4c3c(cn4C(C)=O)C[C@H]2N(C)C1
REMARK SMILES IDX 25 1 19 2 24 3 10 4 23 5 8 6 27 7 17 8 11 9 16 10 9 11 15 12
REMARK SMILES IDX 18 13 26 14 12 15 14 16 13 17 6 18 7 19 3 20 2 21 1 22 4 23
REMARK SMILES IDX 5 24 20 25 22 26 21 27
REMARK H PARENT
ROOT
ATOM      1  N   UNL     1      91.956 120.151 118.546  1.00  0.00    -0.298 NA
ATOM      2  N   UNL     1      94.832 124.051 114.866  1.00  0.00    -0.287 N 
ATOM      3  C   UNL     1      92.827 121.184 117.933  1.00  0.00     0.091 C 
ATOM      4  C   UNL     1      92.845 122.508 118.745  1.00  0.00    -0.026 C 
ATOM      5  C   UNL     1      92.604 121.461 116.399  1.00  0.00     0.061 C 
ATOM      6  C   UNL     1      90.864 121.796 120.057  1.00  0.00     0.116 C 
ATOM      7  C   UNL     1      90.668 120.686 119.004  1.00  0.00     0.102 C 
ATOM      8  C   UNL     1      93.504 122.570 115.950  1.00  0.00    -0.019 A 
ATOM      9  C   UNL     1      93.794 123.538 118.273  1.00  0.00    -0.011 A 
ATOM     10  C   UNL     1      94.024 123.488 116.885  1.00  0.00     0.011 A 
ATOM     11  C   UNL     1      91.971 122.765 119.735  1.00  0.00    -0.007 C 
ATOM     12  C   UNL     1      94.850 124.401 116.229  1.00  0.00     0.056 A 
ATOM     13  C   UNL     1      94.000 122.933 114.726  1.00  0.00     0.099 A 
ATOM     14  C   UNL     1      91.790 118.955 117.732  1.00  0.00     0.106 C 
ATOM     15  C   UNL     1      94.422 124.535 119.015  1.00  0.00     0.009 A 
ATOM     16  C   UNL     1      95.483 125.404 116.988  1.00  0.00     0.027 A 
ATOM     17  C   UNL     1      95.257 125.450 118.376  1.00  0.00     0.003 A 
ENDROOT
BRANCH   6  18
ATOM     18  C   UNL     1      89.521 122.480 120.379  1.00  0.00     0.230 C 
ATOM     19  O   UNL     1      89.308 123.595 119.882  1.00  0.00    -0.274 OA
ATOM     20  N   UNL     1      88.581 121.896 121.229  1.00  0.00    -0.343 N 
BRANCH  20  21
ATOM     21  C   UNL     1      87.346 122.649 121.473  1.00  0.00     0.116 C 
ATOM     22  C   UNL     1      87.366 123.428 122.780  1.00  0.00     0.027 C 
ENDBRANCH  20  21
BRANCH  20  23
ATOM     23  C   UNL     1      88.678 120.573 121.859  1.00  0.00     0.116 C 
ATOM     24  C   UNL     1      89.517 120.566 123.127  1.00  0.00     0.027 C 
ENDBRANCH  20  23
ENDBRANCH   6  18
BRANCH   2  25
ATOM     25  C   UNL     1      95.485 124.635 113.756  1.00  0.00     0.227 C 
ATOM     26  O   UNL     1      95.099 125.724 113.340  1.00  0.00    -0.274 OA
ATOM     27  C   UNL     1      96.623 123.886 113.148  1.00  0.00     0.115 C 
ENDBRANCH   2  25
TORSDOF 4
ENDMDL
MODEL 8
REMARK VINA RESULT:    -7.333      2.226      7.647
REMARK INTER + INTRA:          -9.768
REMARK INTER:                 -10.614
REMARK INTRA:                   0.846
REMARK UNBOUND:                -0.721
REMARK SMILES CCN(CC)C(=O)[C@@H]1C=C2c3cccc4c3c(cn4C(C)=O)C[C@H]2N(C)C1
REMARK SMILES IDX 25 1 19 2 24 3 10 4 23 5 8 6 27 7 17 8 11 9 16 10 9 11 15 12
REMARK SMILES IDX 18 13 26 14 12 15 14 16 13 17 6 18 7 19 3 20 2 21 1 22 4 23
REMARK SMILES IDX 5 24 20 25 22 26 21 27
REMARK H PARENT
ROOT
ATOM      1  N   UNL     1      93.272 122.013 119.239  1.00  0.00    -0.298 NA
ATOM      2  N   UNL     1      89.072 125.490 121.939  1.00  0.00    -0.287 N 
ATOM      3  C   UNL     1      92.257 122.618 120.137  1.00  0.00     0.091 C 
ATOM      4  C   UNL     1      91.170 121.601 120.579  1.00  0.00    -0.026 C 
ATOM      5  C   UNL     1      91.609 123.967 119.645  1.00  0.00     0.061 C 
ATOM      6  C   UNL     1      91.882 119.994 118.828  1.00  0.00     0.116 C 
ATOM      7  C   UNL     1      92.683 121.154 118.204  1.00  0.00     0.102 C 
ATOM      8  C   UNL     1      90.562 124.409 120.620  1.00  0.00    -0.019 A 
ATOM      9  C   UNL     1      90.201 122.092 121.581  1.00  0.00    -0.011 A 
ATOM     10  C   UNL     1      89.964 123.478 121.493  1.00  0.00     0.011 A 
ATOM     11  C   UNL     1      91.028 120.394 120.003  1.00  0.00    -0.007 C 
ATOM     12  C   UNL     1      89.049 124.135 122.316  1.00  0.00     0.056 A 
ATOM     13  C   UNL     1      90.002 125.626 120.901  1.00  0.00     0.099 A 
ATOM     14  C   UNL     1      94.216 122.971 118.679  1.00  0.00     0.106 C 
ATOM     15  C   UNL     1      89.497 121.356 122.530  1.00  0.00     0.009 A 
ATOM     16  C   UNL     1      88.343 123.382 123.275  1.00  0.00     0.027 A 
ATOM     17  C   UNL     1      88.585 122.000 123.365  1.00  0.00     0.003 A 
ENDROOT
BRANCH   6  18
ATOM     18  C   UNL     1      91.110 119.223 117.740  1.00  0.00     0.230 C 
ATOM     19  O   UNL     1      90.294 118.367 118.108  1.00  0.00    -0.274 OA
ATOM     20  N   UNL     1      91.337 119.441 116.381  1.00  0.00    -0.343 N 
BRANCH  20  21
ATOM     21  C   UNL     1      90.553 118.636 115.438  1.00  0.00     0.116 C 
ATOM     22  C   UNL     1      89.086 119.038 115.379  1.00  0.00     0.027 C 
ENDBRANCH  20  21
BRANCH  20  23
ATOM     23  C   UNL     1      92.241 120.440 115.796  1.00  0.00     0.116 C 
ATOM     24  C   UNL     1      92.337 120.356 114.281  1.00  0.00     0.027 C 
ENDBRANCH  20  23
ENDBRANCH   6  18
BRANCH   2  25
ATOM     25  C   UNL     1      88.346 126.597 122.436  1.00  0.00     0.227 C 
ATOM     26  O   UNL     1      88.394 126.854 123.636  1.00  0.00    -0.274 OA
ATOM     27  C   UNL     1      87.557 127.403 121.460  1.00  0.00     0.115 C 
ENDBRANCH   2  25
TORSDOF 4
ENDMDL
MODEL 9
REMARK VINA RESULT:    -7.308      1.956      7.955
REMARK INTER + INTRA:          -9.738
REMARK INTER:                 -10.260
REMARK INTRA:                   0.522
REMARK UNBOUND:                -0.721
REMARK SMILES CCN(CC)C(=O)[C@@H]1C=C2c3cccc4c3c(cn4C(C)=O)C[C@H]2N(C)C1
REMARK SMILES IDX 25 1 19 2 24 3 10 4 23 5 8 6 27 7 17 8 11 9 16 10 9 11 15 12
REMARK SMILES IDX 18 13 26 14 12 15 14 16 13 17 6 18 7 19 3 20 2 21 1 22 4 23
REMARK SMILES IDX 5 24 20 25 22 26 21 27
REMARK H PARENT
ROOT
ATOM      1  N   UNL     1      93.689 121.055 119.475  1.00  0.00    -0.298 NA
ATOM      2  N   UNL     1      88.942 122.257 123.087  1.00  0.00    -0.287 N 
ATOM      3  C   UNL     1      92.523 121.009 120.391  1.00  0.00     0.091 C 
ATOM      4  C   UNL     1      91.451 119.978 119.942  1.00  0.00    -0.026 C 
ATOM      5  C   UNL     1      91.865 122.394 120.751  1.00  0.00     0.061 C 
ATOM      6  C   UNL     1      92.499 119.781 117.702  1.00  0.00     0.116 C 
ATOM      7  C   UNL     1      93.305 121.047 118.057  1.00  0.00     0.102 C 
ATOM      8  C   UNL     1      90.667 122.174 121.621  1.00  0.00    -0.019 A 
ATOM      9  C   UNL     1      90.323 119.777 120.875  1.00  0.00    -0.011 A 
ATOM     10  C   UNL     1      90.013 120.925 121.630  1.00  0.00     0.011 A 
ATOM     11  C   UNL     1      91.467 119.396 118.729  1.00  0.00    -0.007 C 
ATOM     12  C   UNL     1      88.953 120.963 122.535  1.00  0.00     0.056 A 
ATOM     13  C   UNL     1      89.998 122.973 122.508  1.00  0.00     0.099 A 
ATOM     14  C   UNL     1      94.639 122.117 119.775  1.00  0.00     0.106 C 
ATOM     15  C   UNL     1      89.542 118.638 121.048  1.00  0.00     0.009 A 
ATOM     16  C   UNL     1      88.169 119.805 122.705  1.00  0.00     0.027 A 
ATOM     17  C   UNL     1      88.483 118.657 121.955  1.00  0.00     0.003 A 
ENDROOT
BRANCH   6  18
ATOM     18  C   UNL     1      91.937 119.881 116.271  1.00  0.00     0.230 C 
ATOM     19  O   UNL     1      90.829 119.372 116.049  1.00  0.00    -0.274 OA
ATOM     20  N   UNL     1      92.652 120.488 115.239  1.00  0.00    -0.343 N 
BRANCH  20  21
ATOM     21  C   UNL     1      92.021 120.510 113.915  1.00  0.00     0.116 C 
ATOM     22  C   UNL     1      92.963 120.098 112.792  1.00  0.00     0.027 C 
ENDBRANCH  20  21
BRANCH  20  23
ATOM     23  C   UNL     1      93.952 121.161 115.356  1.00  0.00     0.116 C 
ATOM     24  C   UNL     1      93.915 122.624 114.942  1.00  0.00     0.027 C 
ENDBRANCH  20  23
ENDBRANCH   6  18
BRANCH   2  25
ATOM     25  C   UNL     1      88.086 122.843 124.048  1.00  0.00     0.227 C 
ATOM     26  O   UNL     1      87.408 122.114 124.767  1.00  0.00    -0.274 OA
ATOM     27  C   UNL     1      88.058 124.331 124.136  1.00  0.00     0.115 C 
ENDBRANCH   2  25
TORSDOF 4
ENDMDL
MODEL 10
REMARK VINA RESULT:    -7.246      1.863      2.337
REMARK INTER + INTRA:          -9.661
REMARK INTER:                  -9.611
REMARK INTRA:                  -0.050
REMARK UNBOUND:                -0.721
REMARK SMILES CCN(CC)C(=O)[C@@H]1C=C2c3cccc4c3c(cn4C(C)=O)C[C@H]2N(C)C1
REMARK SMILES IDX 25 1 19 2 24 3 10 4 23 5 8 6 27 7 17 8 11 9 16 10 9 11 15 12
REMARK SMILES IDX 18 13 26 14 12 15 14 16 13 17 6 18 7 19 3 20 2 21 1 22 4 23
REMARK SMILES IDX 5 24 20 25 22 26 21 27
REMARK H PARENT
ROOT
ATOM      1  N   UNL     1      89.318 120.211 122.011  1.00  0.00    -0.298 NA
ATOM      2  N   UNL     1      92.599 120.168 116.887  1.00  0.00    -0.287 N 
ATOM      3  C   UNL     1      90.383 120.207 120.977  1.00  0.00     0.091 C 
ATOM      4  C   UNL     1      91.454 121.305 121.219  1.00  0.00    -0.026 C 
ATOM      5  C   UNL     1      89.897 120.206 119.479  1.00  0.00     0.061 C 
ATOM      6  C   UNL     1      89.995 122.443 122.872  1.00  0.00     0.116 C 
ATOM      7  C   UNL     1      88.846 121.561 122.342  1.00  0.00     0.102 C 
ATOM      8  C   UNL     1      91.081 120.273 118.564  1.00  0.00    -0.019 A 
ATOM      9  C   UNL     1      92.619 121.277 120.310  1.00  0.00    -0.011 A 
ATOM     10  C   UNL     1      92.313 120.774 119.030  1.00  0.00     0.011 A 
ATOM     11  C   UNL     1      91.287 122.299 122.110  1.00  0.00    -0.007 C 
ATOM     12  C   UNL     1      93.258 120.707 118.007  1.00  0.00     0.056 A 
ATOM     13  C   UNL     1      91.272 119.916 117.257  1.00  0.00     0.099 A 
ATOM     14  C   UNL     1      88.215 119.302 121.732  1.00  0.00     0.106 C 
ATOM     15  C   UNL     1      93.916 121.718 120.558  1.00  0.00     0.009 A 
ATOM     16  C   UNL     1      94.569 121.152 118.268  1.00  0.00     0.027 A 
ATOM     17  C   UNL     1      94.874 121.650 119.548  1.00  0.00     0.003 A 
ENDROOT
BRANCH   6  18
ATOM     18  C   UNL     1      89.530 123.903 123.025  1.00  0.00     0.230 C 
ATOM     19  O   UNL     1      90.090 124.763 122.332  1.00  0.00    -0.274 OA
ATOM     20  N   UNL     1      88.540 124.270 123.938  1.00  0.00    -0.343 N 
BRANCH  20  21
ATOM     21  C   UNL     1      88.192 125.693 124.006  1.00  0.00     0.116 C 
ATOM     22  C   UNL     1      87.279 126.143 122.874  1.00  0.00     0.027 C 
ENDBRANCH  20  21
BRANCH  20  23
ATOM     23  C   UNL     1      87.767 123.364 124.797  1.00  0.00     0.116 C 
ATOM     24  C   UNL     1      86.291 123.303 124.439  1.00  0.00     0.027 C 
ENDBRANCH  20  23
ENDBRANCH   6  18
BRANCH   2  25
ATOM     25  C   UNL     1      93.074 119.885 115.585  1.00  0.00     0.227 C 
ATOM     26  O   UNL     1      94.192 119.396 115.450  1.00  0.00    -0.274 OA
ATOM     27  C   UNL     1      92.175 120.197 114.436  1.00  0.00     0.115 C 
ENDBRANCH   2  25
TORSDOF 4
ENDMDL
MODEL 11
REMARK VINA RESULT:    -7.229      1.211      1.359
REMARK INTER + INTRA:          -9.640
REMARK INTER:                  -9.190
REMARK INTRA:                  -0.451
REMARK UNBOUND:                -0.721
REMARK SMILES CCN(CC)C(=O)[C@@H]1C=C2c3cccc4c3c(cn4C(C)=O)C[C@H]2N(C)C1
REMARK SMILES IDX 25 1 19 2 24 3 10 4 23 5 8 6 27 7 17 8 11 9 16 10 9 11 15 12
REMARK SMILES IDX 18 13 26 14 12 15 14 16 13 17 6 18 7 19 3 20 2 21 1 22 4 23
REMARK SMILES IDX 5 24 20 25 22 26 21 27
REMARK H PARENT
ROOT
ATOM      1  N   UNL     1      91.564 120.412 120.280  1.00  0.00    -0.298 NA
ATOM      2  N   UNL     1      94.156 121.936 114.990  1.00  0.00    -0.287 N 
ATOM      3  C   UNL     1      92.389 120.983 119.188  1.00  0.00     0.091 C 
ATOM      4  C   UNL     1      92.489 122.532 119.261  1.00  0.00    -0.026 C 
ATOM      5  C   UNL     1      92.041 120.504 117.729  1.00  0.00     0.061 C 
ATOM      6  C   UNL     1      90.618 122.630 120.888  1.00  0.00     0.116 C 
ATOM      7  C   UNL     1      90.323 121.163 120.514  1.00  0.00     0.102 C 
ATOM      8  C   UNL     1      92.910 121.219 116.741  1.00  0.00    -0.019 A 
ATOM      9  C   UNL     1      93.404 123.163 118.288  1.00  0.00    -0.011 A 
ATOM     10  C   UNL     1      93.515 122.445 117.082  1.00  0.00     0.011 A 
ATOM     11  C   UNL     1      91.703 123.272 120.064  1.00  0.00    -0.007 C 
ATOM     12  C   UNL     1      94.292 122.892 116.013  1.00  0.00     0.056 A 
ATOM     13  C   UNL     1      93.305 120.928 115.463  1.00  0.00     0.099 A 
ATOM     14  C   UNL     1      91.318 118.982 120.155  1.00  0.00     0.106 C 
ATOM     15  C   UNL     1      94.101 124.362 118.415  1.00  0.00     0.009 A 
ATOM     16  C   UNL     1      94.995 124.105 116.151  1.00  0.00     0.027 A 
ATOM     17  C   UNL     1      94.888 124.818 117.358  1.00  0.00     0.003 A 
ENDROOT
BRANCH   6  18
ATOM     18  C   UNL     1      89.314 123.449 120.934  1.00  0.00     0.230 C 
ATOM     19  O   UNL     1      88.502 123.293 120.012  1.00  0.00    -0.274 OA
ATOM     20  N   UNL     1      89.056 124.368 121.951  1.00  0.00    -0.343 N 
BRANCH  20  21
ATOM     21  C   UNL     1      87.787 125.101 121.881  1.00  0.00     0.116 C 
ATOM     22  C   UNL     1      87.969 126.601 121.701  1.00  0.00     0.027 C 
ENDBRANCH  20  21
BRANCH  20  23
ATOM     23  C   UNL     1      89.902 124.634 123.122  1.00  0.00     0.116 C 
ATOM     24  C   UNL     1      91.003 125.648 122.855  1.00  0.00     0.027 C 
ENDBRANCH  20  23
ENDBRANCH   6  18
BRANCH   2  25
ATOM     25  C   UNL     1      94.718 121.886 113.694  1.00  0.00     0.227 C 
ATOM     26  O   UNL     1      95.190 122.909 113.207  1.00  0.00    -0.274 OA
ATOM     27  C   UNL     1      94.709 120.573 112.985  1.00  0.00     0.115 C 
ENDBRANCH   2  25
TORSDOF 4
ENDMDL
MODEL 12
REMARK VINA RESULT:    -7.014      3.613      6.338
REMARK INTER + INTRA:          -9.375
REMARK INTER:                  -8.937
REMARK INTRA:                  -0.438
REMARK UNBOUND:                -0.721
REMARK SMILES CCN(CC)C(=O)[C@@H]1C=C2c3cccc4c3c(cn4C(C)=O)C[C@H]2N(C)C1
REMARK SMILES IDX 25 1 19 2 24 3 10 4 23 5 8 6 27 7 17 8 11 9 16 10 9 11 15 12
REMARK SMILES IDX 18 13 26 14 12 15 14 16 13 17 6 18 7 19 3 20 2 21 1 22 4 23
REMARK SMILES IDX 5 24 20 25 22 26 21 27
REMARK H PARENT
ROOT
ATOM      1  N   UNL     1      88.523 126.332 121.244  1.00  0.00    -0.298 NA
ATOM      2  N   UNL     1      91.310 120.925 121.112  1.00  0.00    -0.287 N 
ATOM      3  C   UNL     1      88.904 124.901 121.332  1.00  0.00     0.091 C 
ATOM      4  C   UNL     1      88.548 124.272 122.707  1.00  0.00    -0.026 C 
ATOM      5  C   UNL     1      90.379 124.546 120.909  1.00  0.00     0.061 C 
ATOM      6  C   UNL     1      88.173 126.516 123.698  1.00  0.00     0.116 C 
ATOM      7  C   UNL     1      88.870 127.094 122.450  1.00  0.00     0.102 C 
ATOM      8  C   UNL     1      90.628 123.085 121.120  1.00  0.00    -0.019 A 
ATOM      9  C   UNL     1      88.772 122.816 122.824  1.00  0.00    -0.011 A 
ATOM     10  C   UNL     1      89.830 122.350 122.019  1.00  0.00     0.011 A 
ATOM     11  C   UNL     1      88.181 125.011 123.770  1.00  0.00    -0.007 C 
ATOM     12  C   UNL     1      90.237 121.016 122.017  1.00  0.00     0.056 A 
ATOM     13  C   UNL     1      91.527 122.204 120.582  1.00  0.00     0.099 A 
ATOM     14  C   UNL     1      88.981 126.996 120.031  1.00  0.00     0.106 C 
ATOM     15  C   UNL     1      88.109 121.907 123.643  1.00  0.00     0.009 A 
ATOM     16  C   UNL     1      89.559 120.102 122.847  1.00  0.00     0.027 A 
ATOM     17  C   UNL     1      88.499 120.568 123.646  1.00  0.00     0.003 A 
ENDROOT
BRANCH   6  18
ATOM     18  C   UNL     1      88.700 127.195 124.976  1.00  0.00     0.230 C 
ATOM     19  O   UNL     1      89.545 126.587 125.647  1.00  0.00    -0.274 OA
ATOM     20  N   UNL     1      88.225 128.437 125.400  1.00  0.00    -0.343 N 
BRANCH  20  21
ATOM     21  C   UNL     1      88.791 128.977 126.641  1.00  0.00     0.116 C 
ATOM     22  C   UNL     1      89.725 130.157 126.412  1.00  0.00     0.027 C 
ENDBRANCH  20  21
BRANCH  20  23
ATOM     23  C   UNL     1      87.257 129.288 124.696  1.00  0.00     0.116 C 
ATOM     24  C   UNL     1      86.013 129.593 125.514  1.00  0.00     0.027 C 
ENDBRANCH  20  23
ENDBRANCH   6  18
BRANCH   2  25
ATOM     25  C   UNL     1      92.099 119.817 120.724  1.00  0.00     0.227 C 
ATOM     26  O   UNL     1      91.733 118.686 121.033  1.00  0.00    -0.274 OA
ATOM     27  C   UNL     1      93.343 120.089 119.948  1.00  0.00     0.115 C 
ENDBRANCH   2  25
TORSDOF 4
ENDMDL
MODEL 13
REMARK VINA RESULT:    -6.976      2.640      7.105
REMARK INTER + INTRA:          -9.328
REMARK INTER:                  -8.666
REMARK INTRA:                  -0.662
REMARK UNBOUND:                -0.721
REMARK SMILES CCN(CC)C(=O)[C@@H]1C=C2c3cccc4c3c(cn4C(C)=O)C[C@H]2N(C)C1
REMARK SMILES IDX 25 1 19 2 24 3 10 4 23 5 8 6 27 7 17 8 11 9 16 10 9 11 15 12
REMARK SMILES IDX 18 13 26 14 12 15 14 16 13 17 6 18 7 19 3 20 2 21 1 22 4 23
REMARK SMILES IDX 5 24 20 25 22 26 21 27
REMARK H PARENT
ROOT
ATOM      1  N   UNL     1      92.986 121.057 116.998  1.00  0.00    -0.298 NA
ATOM      2  N   UNL     1      89.884 120.141 122.152  1.00  0.00    -0.287 N 
ATOM      3  C   UNL     1      92.028 121.078 118.131  1.00  0.00     0.091 C 
ATOM      4  C   UNL     1      91.753 122.515 118.653  1.00  0.00    -0.026 C 
ATOM      5  C   UNL     1      92.331 120.089 119.318  1.00  0.00     0.061 C 
ATOM      6  C   UNL     1      93.705 123.402 117.403  1.00  0.00     0.116 C 
ATOM      7  C   UNL     1      94.143 121.936 117.209  1.00  0.00     0.102 C 
ATOM      8  C   UNL     1      91.320 120.281 120.406  1.00  0.00    -0.019 A 
ATOM      9  C   UNL     1      90.707 122.633 119.689  1.00  0.00    -0.011 A 
ATOM     10  C   UNL     1      90.599 121.488 120.503  1.00  0.00     0.011 A 
ATOM     11  C   UNL     1      92.499 123.575 118.289  1.00  0.00    -0.007 C 
ATOM     12  C   UNL     1      89.706 121.411 121.572  1.00  0.00     0.056 A 
ATOM     13  C   UNL     1      90.877 119.476 121.421  1.00  0.00     0.099 A 
ATOM     14  C   UNL     1      93.388 119.719 116.586  1.00  0.00     0.106 C 
ATOM     15  C   UNL     1      89.885 123.722 119.963  1.00  0.00     0.009 A 
ATOM     16  C   UNL     1      88.876 122.517 121.839  1.00  0.00     0.027 A 
ATOM     17  C   UNL     1      88.981 123.657 121.022  1.00  0.00     0.003 A 
ENDROOT
BRANCH   6  18
ATOM     18  C   UNL     1      94.904 124.274 117.819  1.00  0.00     0.230 C 
ATOM     19  O   UNL     1      95.408 124.070 118.932  1.00  0.00    -0.274 OA
ATOM     20  N   UNL     1      95.396 125.291 117.000  1.00  0.00    -0.343 N 
BRANCH  20  21
ATOM     21  C   UNL     1      96.532 126.066 117.510  1.00  0.00     0.116 C 
ATOM     22  C   UNL     1      96.113 127.287 118.317  1.00  0.00     0.027 C 
ENDBRANCH  20  21
BRANCH  20  23
ATOM     23  C   UNL     1      94.927 125.626 115.649  1.00  0.00     0.116 C 
ATOM     24  C   UNL     1      95.697 124.915 114.548  1.00  0.00     0.027 C 
ENDBRANCH  20  23
ENDBRANCH   6  18
BRANCH   2  25
ATOM     25  C   UNL     1      89.245 119.536 123.259  1.00  0.00     0.227 C 
ATOM     26  O   UNL     1      89.637 119.798 124.393  1.00  0.00    -0.274 OA
ATOM     27  C   UNL     1      88.115 118.603 122.982  1.00  0.00     0.115 C 
ENDBRANCH   2  25
TORSDOF 4
ENDMDL
MODEL 14
REMARK VINA RESULT:    -6.748      3.548      5.540
REMARK INTER + INTRA:          -9.046
REMARK INTER:                  -8.762
REMARK INTRA:                  -0.284
REMARK UNBOUND:                -0.721
REMARK SMILES CCN(CC)C(=O)[C@@H]1C=C2c3cccc4c3c(cn4C(C)=O)C[C@H]2N(C)C1
REMARK SMILES IDX 25 1 19 2 24 3 10 4 23 5 8 6 27 7 17 8 11 9 16 10 9 11 15 12
REMARK SMILES IDX 18 13 26 14 12 15 14 16 13 17 6 18 7 19 3 20 2 21 1 22 4 23
REMARK SMILES IDX 5 24 20 25 22 26 21 27
REMARK H PARENT
ROOT
ATOM      1  N   UNL     1      88.855 125.387 120.916  1.00  0.00    -0.298 NA
ATOM      2  N   UNL     1      92.195 120.300 120.887  1.00  0.00    -0.287 N 
ATOM      3  C   UNL     1      89.369 123.996 120.851  1.00  0.00     0.091 C 
ATOM      4  C   UNL     1      88.551 123.016 121.736  1.00  0.00    -0.026 C 
ATOM      5  C   UNL     1      90.916 123.815 121.082  1.00  0.00     0.061 C 
ATOM      6  C   UNL     1      87.454 124.906 122.912  1.00  0.00     0.116 C 
ATOM      7  C   UNL     1      88.529 125.815 122.282  1.00  0.00     0.102 C 
ATOM      8  C   UNL     1      91.263 122.358 121.056  1.00  0.00    -0.019 A 
ATOM      9  C   UNL     1      88.916 121.589 121.619  1.00  0.00    -0.011 A 
ATOM     10  C   UNL     1      90.274 121.386 121.306  1.00  0.00     0.011 A 
ATOM     11  C   UNL     1      87.654 123.436 122.647  1.00  0.00    -0.007 C 
ATOM     12  C   UNL     1      90.835 120.114 121.197  1.00  0.00     0.056 A 
ATOM     13  C   UNL     1      92.426 121.680 120.810  1.00  0.00     0.099 A 
ATOM     14  C   UNL     1      89.690 126.361 120.226  1.00  0.00     0.106 C 
ATOM     15  C   UNL     1      88.106 120.474 121.822  1.00  0.00     0.009 A 
ATOM     16  C   UNL     1      90.008 118.992 121.401  1.00  0.00     0.027 A 
ATOM     17  C   UNL     1      88.651 119.196 121.709  1.00  0.00     0.003 A 
ENDROOT
BRANCH   6  18
ATOM     18  C   UNL     1      87.268 125.242 124.404  1.00  0.00     0.230 C 
ATOM     19  O   UNL     1      87.937 124.603 125.228  1.00  0.00    -0.274 OA
ATOM     20  N   UNL     1      86.353 126.203 124.834  1.00  0.00    -0.343 N 
BRANCH  20  21
ATOM     21  C   UNL     1      86.253 126.426 126.281  1.00  0.00     0.116 C 
ATOM     22  C   UNL     1      85.465 127.677 126.643  1.00  0.00     0.027 C 
ENDBRANCH  20  21
BRANCH  20  23
ATOM     23  C   UNL     1      85.521 127.059 123.980  1.00  0.00     0.116 C 
ATOM     24  C   UNL     1      86.259 128.273 123.437  1.00  0.00     0.027 C 
ENDBRANCH  20  23
ENDBRANCH   6  18
BRANCH   2  25
ATOM     25  C   UNL     1      93.228 119.360 120.669  1.00  0.00     0.227 C 
ATOM     26  O   UNL     1      93.159 118.260 121.209  1.00  0.00    -0.274 OA
ATOM     27  C   UNL     1      94.355 119.763 119.778  1.00  0.00     0.115 C 
ENDBRANCH   2  25
TORSDOF 4
ENDMDL
MODEL 15
REMARK VINA RESULT:    -6.597      1.605      7.762
REMARK INTER + INTRA:          -8.860
REMARK INTER:                  -9.127
REMARK INTRA:                   0.267
REMARK UNBOUND:                -0.721
REMARK SMILES CCN(CC)C(=O)[C@@H]1C=C2c3cccc4c3c(cn4C(C)=O)C[C@H]2N(C)C1
REMARK SMILES IDX 25 1 19 2 24 3 10 4 23 5 8 6 27 7 17 8 11 9 16 10 9 11 15 12
REMARK SMILES IDX 18 13 26 14 12 15 14 16 13 17 6 18 7 19 3 20 2 21 1 22 4 23
REMARK SMILES IDX 5 24 20 25 22 26 21 27
REMARK H PARENT
ROOT
ATOM      1  N   UNL     1      94.117 123.437 118.396  1.00  0.00    -0.298 NA
ATOM      2  N   UNL     1      88.923 122.635 121.463  1.00  0.00    -0.287 N 
ATOM      3  C   UNL     1      92.978 122.931 119.202  1.00  0.00     0.091 C 
ATOM      4  C   UNL     1      92.485 121.536 118.729  1.00  0.00    -0.026 C 
ATOM      5  C   UNL     1      91.772 123.923 119.402  1.00  0.00     0.061 C 
ATOM      6  C   UNL     1      93.767 121.739 116.614  1.00  0.00     0.116 C 
ATOM      7  C   UNL     1      93.932 123.234 116.953  1.00  0.00     0.102 C 
ATOM      8  C   UNL     1      90.682 123.244 120.171  1.00  0.00    -0.019 A 
ATOM      9  C   UNL     1      91.444 120.905 119.566  1.00  0.00    -0.011 A 
ATOM     10  C   UNL     1      90.605 121.837 120.207  1.00  0.00     0.011 A 
ATOM     11  C   UNL     1      92.876 120.983 117.566  1.00  0.00    -0.007 C 
ATOM     12  C   UNL     1      89.529 121.450 121.006  1.00  0.00     0.056 A 
ATOM     13  C   UNL     1      89.647 123.712 120.935  1.00  0.00     0.099 A 
ATOM     14  C   UNL     1      94.503 124.806 118.707  1.00  0.00     0.106 C 
ATOM     15  C   UNL     1      91.188 119.548 119.744  1.00  0.00     0.009 A 
ATOM     16  C   UNL     1      89.280 120.076 121.183  1.00  0.00     0.027 A 
ATOM     17  C   UNL     1      90.122 119.146 120.547  1.00  0.00     0.003 A 
ENDROOT
BRANCH   6  18
ATOM     18  C   UNL     1      93.378 121.559 115.134  1.00  0.00     0.230 C 
ATOM     19  O   UNL     1      93.816 122.382 114.318  1.00  0.00    -0.274 OA
ATOM     20  N   UNL     1      92.530 120.534 114.714  1.00  0.00    -0.343 N 
BRANCH  20  21
ATOM     21  C   UNL     1      92.218 120.473 113.281  1.00  0.00     0.116 C 
ATOM     22  C   UNL     1      93.314 119.816 112.455  1.00  0.00     0.027 C 
ENDBRANCH  20  21
BRANCH  20  23
ATOM     23  C   UNL     1      91.964 119.471 115.554  1.00  0.00     0.116 C 
ATOM     24  C   UNL     1      90.455 119.334 115.423  1.00  0.00     0.027 C 
ENDBRANCH  20  23
ENDBRANCH   6  18
BRANCH   2  25
ATOM     25  C   UNL     1      87.799 122.833 122.298  1.00  0.00     0.227 C 
ATOM     26  O   UNL     1      86.689 122.494 121.897  1.00  0.00    -0.274 OA
ATOM     27  C   UNL     1      88.030 123.446 123.638  1.00  0.00     0.115 C 
ENDBRANCH   2  25
TORSDOF 4
ENDMDL
MODEL 16
REMARK VINA RESULT:    -6.501      5.379      8.250
REMARK INTER + INTRA:          -8.742
REMARK INTER:                  -8.103
REMARK INTRA:                  -0.639
REMARK UNBOUND:                -0.721
REMARK SMILES CCN(CC)C(=O)[C@@H]1C=C2c3cccc4c3c(cn4C(C)=O)C[C@H]2N(C)C1
REMARK SMILES IDX 25 1 19 2 24 3 10 4 23 5 8 6 27 7 17 8 11 9 16 10 9 11 15 12
REMARK SMILES IDX 18 13 26 14 12 15 14 16 13 17 6 18 7 19 3 20 2 21 1 22 4 23
REMARK SMILES IDX 5 24 20 25 22 26 21 27
REMARK H PARENT
ROOT
ATOM      1  N   UNL     1      88.178 127.573 121.268  1.00  0.00    -0.298 NA
ATOM      2  N   UNL     1      89.148 121.801 122.932  1.00  0.00    -0.287 N 
ATOM      3  C   UNL     1      88.091 126.182 121.779  1.00  0.00     0.091 C 
ATOM      4  C   UNL     1      87.494 126.109 123.211  1.00  0.00    -0.026 C 
ATOM      5  C   UNL     1      89.400 125.315 121.663  1.00  0.00     0.061 C 
ATOM      6  C   UNL     1      87.790 128.553 123.519  1.00  0.00     0.116 C 
ATOM      7  C   UNL     1      88.689 128.519 122.267  1.00  0.00     0.102 C 
ATOM      8  C   UNL     1      89.172 123.970 122.281  1.00  0.00    -0.019 A 
ATOM      9  C   UNL     1      87.248 124.749 123.735  1.00  0.00    -0.011 A 
ATOM     10  C   UNL     1      88.144 123.788 123.228  1.00  0.00     0.011 A 
ATOM     11  C   UNL     1      87.326 127.197 123.984  1.00  0.00    -0.007 C 
ATOM     12  C   UNL     1      88.115 122.452 123.631  1.00  0.00     0.056 A 
ATOM     13  C   UNL     1      89.776 122.753 122.118  1.00  0.00     0.099 A 
ATOM     14  C   UNL     1      88.876 127.696 119.996  1.00  0.00     0.106 C 
ATOM     15  C   UNL     1      86.298 124.346 124.669  1.00  0.00     0.009 A 
ATOM     16  C   UNL     1      87.149 122.052 124.574  1.00  0.00     0.027 A 
ATOM     17  C   UNL     1      86.251 123.013 125.075  1.00  0.00     0.003 A 
ENDROOT
BRANCH   6  18
ATOM     18  C   UNL     1      88.443 129.395 124.632  1.00  0.00     0.230 C 
ATOM     19  O   UNL     1      89.061 128.795 125.522  1.00  0.00    -0.274 OA
ATOM     20  N   UNL     1      88.320 130.784 124.674  1.00  0.00    -0.343 N 
BRANCH  20  21
ATOM     21  C   UNL     1      88.972 131.477 125.791  1.00  0.00     0.116 C 
ATOM     22  C   UNL     1      90.256 132.187 125.389  1.00  0.00     0.027 C 
ENDBRANCH  20  21
BRANCH  20  23
ATOM     23  C   UNL     1      87.652 131.631 123.677  1.00  0.00     0.116 C 
ATOM     24  C   UNL     1      86.219 131.983 124.045  1.00  0.00     0.027 C 
ENDBRANCH  20  23
ENDBRANCH   6  18
BRANCH   2  25
ATOM     25  C   UNL     1      89.569 120.451 122.956  1.00  0.00     0.227 C 
ATOM     26  O   UNL     1      90.720 120.190 123.296  1.00  0.00    -0.274 OA
ATOM     27  C   UNL     1      88.576 119.408 122.568  1.00  0.00     0.115 C 
ENDBRANCH   2  25
TORSDOF 4
ENDMDL
MODEL 17
REMARK VINA RESULT:    -6.347      3.019      8.620
REMARK INTER + INTRA:          -8.551
REMARK INTER:                  -8.133
REMARK INTRA:                  -0.418
REMARK UNBOUND:                -0.721
REMARK SMILES CCN(CC)C(=O)[C@@H]1C=C2c3cccc4c3c(cn4C(C)=O)C[C@H]2N(C)C1
REMARK SMILES IDX 25 1 19 2 24 3 10 4 23 5 8 6 27 7 17 8 11 9 16 10 9 11 15 12
REMARK SMILES IDX 18 13 26 14 12 15 14 16 13 17 6 18 7 19 3 20 2 21 1 22 4 23
REMARK SMILES IDX 5 24 20 25 22 26 21 27
REMARK H PARENT
ROOT
ATOM      1  N   UNL     1      87.554 121.623 121.278  1.00  0.00    -0.298 NA
ATOM      2  N   UNL     1      86.829 126.503 124.840  1.00  0.00    -0.287 N 
ATOM      3  C   UNL     1      87.417 122.984 121.854  1.00  0.00     0.091 C 
ATOM      4  C   UNL     1      88.551 123.942 121.397  1.00  0.00    -0.026 C 
ATOM      5  C   UNL     1      87.200 123.061 123.412  1.00  0.00     0.061 C 
ATOM      6  C   UNL     1      89.892 122.037 120.544  1.00  0.00     0.116 C 
ATOM      7  C   UNL     1      88.931 121.117 121.324  1.00  0.00     0.102 C 
ATOM      8  C   UNL     1      87.151 124.494 123.845  1.00  0.00    -0.019 A 
ATOM      9  C   UNL     1      88.410 125.351 121.819  1.00  0.00    -0.011 A 
ATOM     10  C   UNL     1      87.728 125.500 123.042  1.00  0.00     0.011 A 
ATOM     11  C   UNL     1      89.659 123.508 120.769  1.00  0.00    -0.007 C 
ATOM     12  C   UNL     1      87.528 126.743 123.642  1.00  0.00     0.056 A 
ATOM     13  C   UNL     1      86.616 125.122 124.936  1.00  0.00     0.099 A 
ATOM     14  C   UNL     1      86.601 120.656 121.806  1.00  0.00     0.106 C 
ATOM     15  C   UNL     1      88.897 126.492 121.187  1.00  0.00     0.009 A 
ATOM     16  C   UNL     1      88.022 127.892 122.994  1.00  0.00     0.027 A 
ATOM     17  C   UNL     1      88.698 127.742 121.770  1.00  0.00     0.003 A 
ENDROOT
BRANCH   6  18
ATOM     18  C   UNL     1      91.354 121.605 120.766  1.00  0.00     0.230 C 
ATOM     19  O   UNL     1      91.630 121.025 121.825  1.00  0.00    -0.274 OA
ATOM     20  N   UNL     1      92.355 121.884 119.835  1.00  0.00    -0.343 N 
BRANCH  20  21
ATOM     21  C   UNL     1      93.713 121.437 120.164  1.00  0.00     0.116 C 
ATOM     22  C   UNL     1      93.914 119.940 119.982  1.00  0.00     0.027 C 
ENDBRANCH  20  21
BRANCH  20  23
ATOM     23  C   UNL     1      92.175 122.529 118.528  1.00  0.00     0.116 C 
ATOM     24  C   UNL     1      93.480 122.981 117.892  1.00  0.00     0.027 C 
ENDBRANCH  20  23
ENDBRANCH   6  18
BRANCH   2  25
ATOM     25  C   UNL     1      86.371 127.397 125.835  1.00  0.00     0.227 C 
ATOM     26  O   UNL     1      85.163 127.541 126.000  1.00  0.00    -0.274 OA
ATOM     27  C   UNL     1      87.397 128.121 126.641  1.00  0.00     0.115 C 
ENDBRANCH   2  25
TORSDOF 4
ENDMDL
MODEL 18
REMARK VINA RESULT:    -5.879      2.040      7.552
REMARK INTER + INTRA:          -7.974
REMARK INTER:                  -8.255
REMARK INTRA:                   0.281
REMARK UNBOUND:                -0.721
REMARK SMILES CCN(CC)C(=O)[C@@H]1C=C2c3cccc4c3c(cn4C(C)=O)C[C@H]2N(C)C1
REMARK SMILES IDX 25 1 19 2 24 3 10 4 23 5 8 6 27 7 17 8 11 9 16 10 9 11 15 12
REMARK SMILES IDX 18 13 26 14 12 15 14 16 13 17 6 18 7 19 3 20 2 21 1 22 4 23
REMARK SMILES IDX 5 24 20 25 22 26 21 27
REMARK H PARENT
ROOT
ATOM      1  N   UNL     1      93.760 122.789 118.792  1.00  0.00    -0.298 NA
ATOM      2  N   UNL     1      89.017 123.778 122.473  1.00  0.00    -0.287 N 
ATOM      3  C   UNL     1      92.752 122.790 119.881  1.00  0.00     0.091 C 
ATOM      4  C   UNL     1      92.270 121.360 120.249  1.00  0.00    -0.026 C 
ATOM      5  C   UNL     1      91.535 123.772 119.701  1.00  0.00     0.061 C 
ATOM      6  C   UNL     1      93.276 120.428 118.181  1.00  0.00     0.116 C 
ATOM      7  C   UNL     1      93.413 121.883 117.690  1.00  0.00     0.102 C 
ATOM      8  C   UNL     1      90.578 123.604 120.840  1.00  0.00    -0.019 A 
ATOM      9  C   UNL     1      91.368 121.267 121.415  1.00  0.00    -0.011 A 
ATOM     10  C   UNL     1      90.571 122.414 121.594  1.00  0.00     0.011 A 
ATOM     11  C   UNL     1      92.543 120.283 119.489  1.00  0.00    -0.007 C 
ATOM     12  C   UNL     1      89.618 122.512 122.609  1.00  0.00     0.056 A 
ATOM     13  C   UNL     1      89.622 124.419 121.384  1.00  0.00     0.099 A 
ATOM     14  C   UNL     1      94.118 124.117 118.313  1.00  0.00     0.106 C 
ATOM     15  C   UNL     1      91.198 120.196 122.289  1.00  0.00     0.009 A 
ATOM     16  C   UNL     1      89.455 121.426 123.490  1.00  0.00     0.027 A 
ATOM     17  C   UNL     1      90.256 120.283 123.313  1.00  0.00     0.003 A 
ENDROOT
BRANCH   6  18
ATOM     18  C   UNL     1      92.720 119.528 117.061  1.00  0.00     0.230 C 
ATOM     19  O   UNL     1      93.530 119.013 116.278  1.00  0.00    -0.274 OA
ATOM     20  N   UNL     1      91.351 119.320 116.895  1.00  0.00    -0.343 N 
BRANCH  20  21
ATOM     21  C   UNL     1      90.939 118.456 115.783  1.00  0.00     0.116 C 
ATOM     22  C   UNL     1      89.478 118.631 115.394  1.00  0.00     0.027 C 
ENDBRANCH  20  21
BRANCH  20  23
ATOM     23  C   UNL     1      90.279 119.832 117.759  1.00  0.00     0.116 C 
ATOM     24  C   UNL     1      89.947 118.910 118.921  1.00  0.00     0.027 C 
ENDBRANCH  20  23
ENDBRANCH   6  18
BRANCH   2  25
ATOM     25  C   UNL     1      87.995 124.398 123.227  1.00  0.00     0.227 C 
ATOM     26  O   UNL     1      86.922 123.819 123.370  1.00  0.00    -0.274 OA
ATOM     27  C   UNL     1      88.284 125.737 123.818  1.00  0.00     0.115 C 
ENDBRANCH   2  25
TORSDOF 4
ENDMDL
MODEL 19
REMARK VINA RESULT:    -5.639      4.057      7.274
REMARK INTER + INTRA:          -7.679
REMARK INTER:                  -7.311
REMARK INTRA:                  -0.368
REMARK UNBOUND:                -0.721
REMARK SMILES CCN(CC)C(=O)[C@@H]1C=C2c3cccc4c3c(cn4C(C)=O)C[C@H]2N(C)C1
REMARK SMILES IDX 25 1 19 2 24 3 10 4 23 5 8 6 27 7 17 8 11 9 16 10 9 11 15 12
REMARK SMILES IDX 18 13 26 14 12 15 14 16 13 17 6 18 7 19 3 20 2 21 1 22 4 23
REMARK SMILES IDX 5 24 20 25 22 26 21 27
REMARK H PARENT
ROOT
ATOM      1  N   UNL     1      86.827 127.398 121.914  1.00  0.00    -0.298 NA
ATOM      2  N   UNL     1      90.070 122.278 121.379  1.00  0.00    -0.287 N 
ATOM      3  C   UNL     1      87.356 126.013 121.955  1.00  0.00     0.091 C 
ATOM      4  C   UNL     1      87.302 125.394 123.379  1.00  0.00    -0.026 C 
ATOM      5  C   UNL     1      88.766 125.787 121.290  1.00  0.00     0.061 C 
ATOM      6  C   UNL     1      86.881 127.621 124.390  1.00  0.00     0.116 C 
ATOM      7  C   UNL     1      87.297 128.225 123.033  1.00  0.00     0.102 C 
ATOM      8  C   UNL     1      89.189 124.362 121.475  1.00  0.00    -0.019 A 
ATOM      9  C   UNL     1      87.685 123.971 123.476  1.00  0.00    -0.011 A 
ATOM     10  C   UNL     1      88.631 123.582 122.508  1.00  0.00     0.011 A 
ATOM     11  C   UNL     1      87.049 126.127 124.479  1.00  0.00    -0.007 C 
ATOM     12  C   UNL     1      89.162 122.293 122.454  1.00  0.00     0.056 A 
ATOM     13  C   UNL     1      90.067 123.555 120.803  1.00  0.00     0.099 A 
ATOM     14  C   UNL     1      87.006 128.065 120.632  1.00  0.00     0.106 C 
ATOM     15  C   UNL     1      87.263 123.027 124.409  1.00  0.00     0.009 A 
ATOM     16  C   UNL     1      88.727 121.345 123.400  1.00  0.00     0.027 A 
ATOM     17  C   UNL     1      87.777 121.733 124.363  1.00  0.00     0.003 A 
ENDROOT
BRANCH   6  18
ATOM     18  C   UNL     1      87.548 128.386 125.549  1.00  0.00     0.230 C 
ATOM     19  O   UNL     1      86.855 128.645 126.543  1.00  0.00    -0.274 OA
ATOM     20  N   UNL     1      88.874 128.814 125.484  1.00  0.00    -0.343 N 
BRANCH  20  21
ATOM     21  C   UNL     1      89.395 129.547 126.643  1.00  0.00     0.116 C 
ATOM     22  C   UNL     1      90.060 130.865 126.272  1.00  0.00     0.027 C 
ENDBRANCH  20  21
BRANCH  20  23
ATOM     23  C   UNL     1      89.822 128.552 124.394  1.00  0.00     0.116 C 
ATOM     24  C   UNL     1      90.465 127.176 124.468  1.00  0.00     0.027 C 
ENDBRANCH  20  23
ENDBRANCH   6  18
BRANCH   2  25
ATOM     25  C   UNL     1      90.886 121.238 120.877  1.00  0.00     0.227 C 
ATOM     26  O   UNL     1      92.093 121.265 121.099  1.00  0.00    -0.274 OA
ATOM     27  C   UNL     1      90.223 120.150 120.100  1.00  0.00     0.115 C 
ENDBRANCH   2  25
TORSDOF 4
ENDMDL
