MODEL 1
REMARK VINA RESULT:    -8.931      0.000      0.000
REMARK INTER + INTRA:         -11.216
REMARK INTER:                 -11.020
REMARK INTRA:                  -0.196
REMARK UNBOUND:                -0.196
REMARK SMILES CCN(CC)C(=O)[C@@H]1C=C2c3cccc4c3c(cn4C(C)=O)C[C@H]2N(C)C1
REMARK SMILES IDX 25 1 19 2 24 3 10 4 23 5 8 6 27 7 17 8 11 9 16 10 9 11 15 12
REMARK SMILES IDX 18 13 26 14 12 15 14 16 13 17 6 18 7 19 3 20 2 21 1 22 4 23
REMARK SMILES IDX 5 24 20 25 22 26 21 27
REMARK H PARENT
ROOT
ATOM      1  N   UNL     1      21.163 -24.499  88.470  1.00  0.00    -0.298 NA
ATOM      2  N   UNL     1      20.313 -26.297  82.719  1.00  0.00    -0.287 N 
ATOM      3  C   UNL     1      20.683 -24.734  87.086  1.00  0.00     0.091 C 
ATOM      4  C   UNL     1      19.169 -25.078  87.030  1.00  0.00    -0.026 C 
ATOM      5  C   UNL     1      21.528 -25.740  86.217  1.00  0.00     0.061 C 
ATOM      6  C   UNL     1      19.113 -25.481  89.478  1.00  0.00     0.116 C 
ATOM      7  C   UNL     1      20.655 -25.488  89.429  1.00  0.00     0.102 C 
ATOM      8  C   UNL     1      20.878 -25.923  84.881  1.00  0.00    -0.019 A 
ATOM      9  C   UNL     1      18.586 -25.192  85.677  1.00  0.00    -0.011 A 
ATOM     10  C   UNL     1      19.509 -25.636  84.709  1.00  0.00     0.011 A 
ATOM     11  C   UNL     1      18.453 -25.382  88.127  1.00  0.00    -0.007 C 
ATOM     12  C   UNL     1      19.151 -25.856  83.379  1.00  0.00     0.056 A 
ATOM     13  C   UNL     1      21.349 -26.330  83.661  1.00  0.00     0.099 A 
ATOM     14  C   UNL     1      22.606 -24.330  88.577  1.00  0.00     0.106 C 
ATOM     15  C   UNL     1      17.270 -24.962  85.284  1.00  0.00     0.009 A 
ATOM     16  C   UNL     1      17.819 -25.618  82.990  1.00  0.00     0.027 A 
ATOM     17  C   UNL     1      16.900 -25.170  83.956  1.00  0.00     0.003 A 
ENDROOT
BRANCH   6  18
ATOM     18  C   UNL     1      18.593 -26.651  90.333  1.00  0.00     0.230 C 
ATOM     19  O   UNL     1      17.701 -26.412  91.158  1.00  0.00    -0.274 OA
ATOM     20  N   UNL     1      19.124 -27.937  90.224  1.00  0.00    -0.343 N 
BRANCH  20  21
ATOM     21  C   UNL     1      18.559 -28.967  91.103  1.00  0.00     0.116 C 
ATOM     22  C   UNL     1      17.434 -29.760  90.453  1.00  0.00     0.027 C 
ENDBRANCH  20  21
BRANCH  20  23
ATOM     23  C   UNL     1      20.154 -28.378  89.275  1.00  0.00     0.116 C 
ATOM     24  C   UNL     1      21.307 -29.119  89.933  1.00  0.00     0.027 C 
ENDBRANCH  20  23
ENDBRANCH   6  18
BRANCH   2  25
ATOM     25  C   UNL     1      20.523 -26.664  81.370  1.00  0.00     0.227 C 
ATOM     26  O   UNL     1      20.446 -25.805  80.497  1.00  0.00    -0.274 OA
ATOM     27  C   UNL     1      20.837 -28.094  81.082  1.00  0.00     0.115 C 
ENDBRANCH   2  25
TORSDOF 4
ENDMDL
MODEL 2
REMARK VINA RESULT:    -8.625      5.465      9.365
REMARK INTER + INTRA:         -10.837
REMARK INTER:                 -10.117
REMARK INTRA:                  -0.721
REMARK UNBOUND:                -0.196
REMARK SMILES CCN(CC)C(=O)[C@@H]1C=C2c3cccc4c3c(cn4C(C)=O)C[C@H]2N(C)C1
REMARK SMILES IDX 25 1 19 2 24 3 10 4 23 5 8 6 27 7 17 8 11 9 16 10 9 11 15 12
REMARK SMILES IDX 18 13 26 14 12 15 14 16 13 17 6 18 7 19 3 20 2 21 1 22 4 23
REMARK SMILES IDX 5 24 20 25 22 26 21 27
REMARK H PARENT
ROOT
ATOM      1  N   UNL     1      25.214 -27.307  87.902  1.00  0.00    -0.298 NA
ATOM      2  N   UNL     1      27.850 -26.237  93.280  1.00  0.00    -0.287 N 
ATOM      3  C   UNL     1      25.614 -27.255  89.330  1.00  0.00     0.091 C 
ATOM      4  C   UNL     1      24.414 -26.973  90.276  1.00  0.00    -0.026 C 
ATOM      5  C   UNL     1      26.841 -26.331  89.676  1.00  0.00     0.061 C 
ATOM      6  C   UNL     1      22.994 -26.285  88.361  1.00  0.00     0.116 C 
ATOM      7  C   UNL     1      24.290 -26.230  87.526  1.00  0.00     0.102 C 
ATOM      8  C   UNL     1      27.073 -26.331  91.155  1.00  0.00    -0.019 A 
ATOM      9  C   UNL     1      24.708 -27.041  91.722  1.00  0.00    -0.011 A 
ATOM     10  C   UNL     1      26.033 -26.684  92.038  1.00  0.00     0.011 A 
ATOM     11  C   UNL     1      23.214 -26.567  89.824  1.00  0.00    -0.007 C 
ATOM     12  C   UNL     1      26.503 -26.637  93.351  1.00  0.00     0.056 A 
ATOM     13  C   UNL     1      28.168 -26.056  91.928  1.00  0.00     0.099 A 
ATOM     14  C   UNL     1      26.332 -27.412  86.975  1.00  0.00     0.106 C 
ATOM     15  C   UNL     1      23.840 -27.363  92.762  1.00  0.00     0.009 A 
ATOM     16  C   UNL     1      25.619 -26.966  94.396  1.00  0.00     0.027 A 
ATOM     17  C   UNL     1      24.297 -27.328  94.079  1.00  0.00     0.003 A 
ENDROOT
BRANCH   6  18
ATOM     18  C   UNL     1      22.127 -25.040  88.097  1.00  0.00     0.230 C 
ATOM     19  O   UNL     1      22.429 -23.991  88.683  1.00  0.00    -0.274 OA
ATOM     20  N   UNL     1      21.011 -25.083  87.260  1.00  0.00    -0.343 N 
BRANCH  20  21
ATOM     21  C   UNL     1      20.253 -23.838  87.098  1.00  0.00     0.116 C 
ATOM     22  C   UNL     1      18.897 -23.865  87.790  1.00  0.00     0.027 C 
ENDBRANCH  20  21
BRANCH  20  23
ATOM     23  C   UNL     1      20.553 -26.237  86.476  1.00  0.00     0.116 C 
ATOM     24  C   UNL     1      20.738 -26.062  84.976  1.00  0.00     0.027 C 
ENDBRANCH  20  23
ENDBRANCH   6  18
BRANCH   2  25
ATOM     25  C   UNL     1      28.804 -26.025  94.303  1.00  0.00     0.227 C 
ATOM     26  O   UNL     1      29.149 -24.878  94.570  1.00  0.00    -0.274 OA
ATOM     27  C   UNL     1      29.339 -27.224  95.010  1.00  0.00     0.115 C 
ENDBRANCH   2  25
TORSDOF 4
ENDMDL
MODEL 3
REMARK VINA RESULT:    -8.613      4.523      8.671
REMARK INTER + INTRA:         -10.823
REMARK INTER:                 -10.108
REMARK INTRA:                  -0.715
REMARK UNBOUND:                -0.196
REMARK SMILES CCN(CC)C(=O)[C@@H]1C=C2c3cccc4c3c(cn4C(C)=O)C[C@H]2N(C)C1
REMARK SMILES IDX 25 1 19 2 24 3 10 4 23 5 8 6 27 7 17 8 11 9 16 10 9 11 15 12
REMARK SMILES IDX 18 13 26 14 12 15 14 16 13 17 6 18 7 19 3 20 2 21 1 22 4 23
REMARK SMILES IDX 5 24 20 25 22 26 21 27
REMARK H PARENT
ROOT
ATOM      1  N   UNL     1      25.557 -25.945  87.225  1.00  0.00    -0.298 NA
ATOM      2  N   UNL     1      26.089 -27.646  93.044  1.00  0.00    -0.287 N 
ATOM      3  C   UNL     1      25.508 -26.631  88.540  1.00  0.00     0.091 C 
ATOM      4  C   UNL     1      24.074 -27.092  88.920  1.00  0.00    -0.026 C 
ATOM      5  C   UNL     1      26.202 -25.884  89.741  1.00  0.00     0.061 C 
ATOM      6  C   UNL     1      23.087 -25.676  87.136  1.00  0.00     0.116 C 
ATOM      7  C   UNL     1      24.462 -24.985  87.038  1.00  0.00     0.102 C 
ATOM      8  C   UNL     1      26.005 -26.666  91.003  1.00  0.00    -0.019 A 
ATOM      9  C   UNL     1      23.964 -27.902  90.151  1.00  0.00    -0.011 A 
ATOM     10  C   UNL     1      24.948 -27.592  91.110  1.00  0.00     0.011 A 
ATOM     11  C   UNL     1      22.979 -26.682  88.253  1.00  0.00    -0.007 C 
ATOM     12  C   UNL     1      24.994 -28.207  92.361  1.00  0.00     0.056 A 
ATOM     13  C   UNL     1      26.684 -26.707  92.191  1.00  0.00     0.099 A 
ATOM     14  C   UNL     1      26.853 -25.361  86.908  1.00  0.00     0.106 C 
ATOM     15  C   UNL     1      23.008 -28.863  90.466  1.00  0.00     0.009 A 
ATOM     16  C   UNL     1      24.025 -29.181  92.670  1.00  0.00     0.027 A 
ATOM     17  C   UNL     1      23.046 -29.493  91.709  1.00  0.00     0.003 A 
ENDROOT
BRANCH   6  18
ATOM     18  C   UNL     1      21.955 -24.632  87.137  1.00  0.00     0.230 C 
ATOM     19  O   UNL     1      22.168 -23.549  87.700  1.00  0.00    -0.274 OA
ATOM     20  N   UNL     1      20.711 -24.893  86.562  1.00  0.00    -0.343 N 
BRANCH  20  21
ATOM     21  C   UNL     1      19.706 -23.827  86.638  1.00  0.00     0.116 C 
ATOM     22  C   UNL     1      18.630 -24.089  87.681  1.00  0.00     0.027 C 
ENDBRANCH  20  21
BRANCH  20  23
ATOM     23  C   UNL     1      20.325 -26.108  85.833  1.00  0.00     0.116 C 
ATOM     24  C   UNL     1      20.699 -26.075  84.360  1.00  0.00     0.027 C 
ENDBRANCH  20  23
ENDBRANCH   6  18
BRANCH   2  25
ATOM     25  C   UNL     1      26.594 -27.897  94.340  1.00  0.00     0.227 C 
ATOM     26  O   UNL     1      27.675 -28.467  94.461  1.00  0.00    -0.274 OA
ATOM     27  C   UNL     1      25.775 -27.446  95.502  1.00  0.00     0.115 C 
ENDBRANCH   2  25
TORSDOF 4
ENDMDL
MODEL 4
REMARK VINA RESULT:    -8.585      3.283      5.657
REMARK INTER + INTRA:         -10.789
REMARK INTER:                 -10.101
REMARK INTRA:                  -0.688
REMARK UNBOUND:                -0.196
REMARK SMILES CCN(CC)C(=O)[C@@H]1C=C2c3cccc4c3c(cn4C(C)=O)C[C@H]2N(C)C1
REMARK SMILES IDX 25 1 19 2 24 3 10 4 23 5 8 6 27 7 17 8 11 9 16 10 9 11 15 12
REMARK SMILES IDX 18 13 26 14 12 15 14 16 13 17 6 18 7 19 3 20 2 21 1 22 4 23
REMARK SMILES IDX 5 24 20 25 22 26 21 27
REMARK H PARENT
ROOT
ATOM      1  N   UNL     1      18.831 -26.561  87.125  1.00  0.00    -0.298 NA
ATOM      2  N   UNL     1      24.738 -25.444  88.061  1.00  0.00    -0.287 N 
ATOM      3  C   UNL     1      20.296 -26.629  87.347  1.00  0.00     0.091 C 
ATOM      4  C   UNL     1      20.684 -27.628  88.471  1.00  0.00    -0.026 C 
ATOM      5  C   UNL     1      21.037 -25.251  87.530  1.00  0.00     0.061 C 
ATOM      6  C   UNL     1      18.331 -27.751  89.250  1.00  0.00     0.116 C 
ATOM      7  C   UNL     1      18.063 -26.509  88.376  1.00  0.00     0.102 C 
ATOM      8  C   UNL     1      22.487 -25.491  87.814  1.00  0.00    -0.019 A 
ATOM      9  C   UNL     1      22.132 -27.853  88.659  1.00  0.00    -0.011 A 
ATOM     10  C   UNL     1      22.917 -26.731  88.327  1.00  0.00     0.011 A 
ATOM     11  C   UNL     1      19.779 -28.163  89.311  1.00  0.00    -0.007 C 
ATOM     12  C   UNL     1      24.304 -26.716  88.477  1.00  0.00     0.056 A 
ATOM     13  C   UNL     1      23.608 -24.719  87.665  1.00  0.00     0.099 A 
ATOM     14  C   UNL     1      18.419 -25.523  86.191  1.00  0.00     0.106 C 
ATOM     15  C   UNL     1      22.771 -28.988  89.150  1.00  0.00     0.009 A 
ATOM     16  C   UNL     1      24.941 -27.871  88.972  1.00  0.00     0.027 A 
ATOM     17  C   UNL     1      24.157 -28.992  89.298  1.00  0.00     0.003 A 
ENDROOT
BRANCH   6  18
ATOM     18  C   UNL     1      17.679 -27.588  90.636  1.00  0.00     0.230 C 
ATOM     19  O   UNL     1      17.795 -26.493  91.204  1.00  0.00    -0.274 OA
ATOM     20  N   UNL     1      17.009 -28.638  91.263  1.00  0.00    -0.343 N 
BRANCH  20  21
ATOM     21  C   UNL     1      16.442 -28.369  92.589  1.00  0.00     0.116 C 
ATOM     22  C   UNL     1      17.293 -28.910  93.729  1.00  0.00     0.027 C 
ENDBRANCH  20  21
BRANCH  20  23
ATOM     23  C   UNL     1      16.761 -29.973  90.704  1.00  0.00     0.116 C 
ATOM     24  C   UNL     1      15.381 -30.520  91.030  1.00  0.00     0.027 C 
ENDBRANCH  20  23
ENDBRANCH   6  18
BRANCH   2  25
ATOM     25  C   UNL     1      26.037 -24.887  88.005  1.00  0.00     0.227 C 
ATOM     26  O   UNL     1      26.334 -23.984  88.783  1.00  0.00    -0.274 OA
ATOM     27  C   UNL     1      26.985 -25.438  86.994  1.00  0.00     0.115 C 
ENDBRANCH   2  25
TORSDOF 4
ENDMDL
MODEL 5
REMARK VINA RESULT:    -8.469      2.804      8.469
REMARK INTER + INTRA:         -10.645
REMARK INTER:                  -9.943
REMARK INTRA:                  -0.702
REMARK UNBOUND:                -0.196
REMARK SMILES CCN(CC)C(=O)[C@@H]1C=C2c3cccc4c3c(cn4C(C)=O)C[C@H]2N(C)C1
REMARK SMILES IDX 25 1 19 2 24 3 10 4 23 5 8 6 27 7 17 8 11 9 16 10 9 11 15 12
REMARK SMILES IDX 18 13 26 14 12 15 14 16 13 17 6 18 7 19 3 20 2 21 1 22 4 23
REMARK SMILES IDX 5 24 20 25 22 26 21 27
REMARK H PARENT
ROOT
ATOM      1  N   UNL     1      21.015 -28.663  89.376  1.00  0.00    -0.298 NA
ATOM      2  N   UNL     1      17.877 -29.095  94.571  1.00  0.00    -0.287 N 
ATOM      3  C   UNL     1      19.994 -28.858  90.435  1.00  0.00     0.091 C 
ATOM      4  C   UNL     1      18.657 -28.135  90.116  1.00  0.00    -0.026 C 
ATOM      5  C   UNL     1      20.460 -28.569  91.911  1.00  0.00     0.061 C 
ATOM      6  C   UNL     1      19.738 -26.810  88.318  1.00  0.00     0.116 C 
ATOM      7  C   UNL     1      21.089 -27.276  88.899  1.00  0.00     0.102 C 
ATOM      8  C   UNL     1      19.305 -28.742  92.848  1.00  0.00    -0.019 A 
ATOM      9  C   UNL     1      17.547 -28.393  91.057  1.00  0.00    -0.011 A 
ATOM     10  C   UNL     1      17.982 -28.656  92.371  1.00  0.00     0.011 A 
ATOM     11  C   UNL     1      18.539 -27.230  89.128  1.00  0.00    -0.007 C 
ATOM     12  C   UNL     1      17.093 -28.879  93.423  1.00  0.00     0.056 A 
ATOM     13  C   UNL     1      19.222 -29.002  94.190  1.00  0.00     0.099 A 
ATOM     14  C   UNL     1      22.329 -29.194  89.712  1.00  0.00     0.106 C 
ATOM     15  C   UNL     1      16.179 -28.360  90.803  1.00  0.00     0.009 A 
ATOM     16  C   UNL     1      15.710 -28.847  93.156  1.00  0.00     0.027 A 
ATOM     17  C   UNL     1      15.278 -28.589  91.843  1.00  0.00     0.003 A 
ENDROOT
BRANCH   6  18
ATOM     18  C   UNL     1      19.774 -25.302  88.008  1.00  0.00     0.230 C 
ATOM     19  O   UNL     1      19.935 -24.521  88.957  1.00  0.00    -0.274 OA
ATOM     20  N   UNL     1      19.596 -24.810  86.715  1.00  0.00    -0.343 N 
BRANCH  20  21
ATOM     21  C   UNL     1      19.635 -23.354  86.545  1.00  0.00     0.116 C 
ATOM     22  C   UNL     1      18.254 -22.715  86.516  1.00  0.00     0.027 C 
ENDBRANCH  20  21
BRANCH  20  23
ATOM     23  C   UNL     1      19.432 -25.609  85.493  1.00  0.00     0.116 C 
ATOM     24  C   UNL     1      20.750 -26.034  84.866  1.00  0.00     0.027 C 
ENDBRANCH  20  23
ENDBRANCH   6  18
BRANCH   2  25
ATOM     25  C   UNL     1      17.500 -29.364  95.907  1.00  0.00     0.227 C 
ATOM     26  O   UNL     1      17.359 -28.428  96.689  1.00  0.00    -0.274 OA
ATOM     27  C   UNL     1      17.288 -30.789  96.294  1.00  0.00     0.115 C 
ENDBRANCH   2  25
TORSDOF 4
ENDMDL
MODEL 6
REMARK VINA RESULT:    -8.323      5.063      8.077
REMARK INTER + INTRA:         -10.465
REMARK INTER:                  -9.939
REMARK INTRA:                  -0.526
REMARK UNBOUND:                -0.196
REMARK SMILES CCN(CC)C(=O)[C@@H]1C=C2c3cccc4c3c(cn4C(C)=O)C[C@H]2N(C)C1
REMARK SMILES IDX 25 1 19 2 24 3 10 4 23 5 8 6 27 7 17 8 11 9 16 10 9 11 15 12
REMARK SMILES IDX 18 13 26 14 12 15 14 16 13 17 6 18 7 19 3 20 2 21 1 22 4 23
REMARK SMILES IDX 5 24 20 25 22 26 21 27
REMARK H PARENT
ROOT
ATOM      1  N   UNL     1      23.737 -29.487  92.212  1.00  0.00    -0.298 NA
ATOM      2  N   UNL     1      17.720 -28.584  92.142  1.00  0.00    -0.287 N 
ATOM      3  C   UNL     1      22.293 -29.402  91.883  1.00  0.00     0.091 C 
ATOM      4  C   UNL     1      22.034 -28.765  90.490  1.00  0.00    -0.026 C 
ATOM      5  C   UNL     1      21.365 -28.762  92.982  1.00  0.00     0.061 C 
ATOM      6  C   UNL     1      24.371 -27.939  90.373  1.00  0.00     0.116 C 
ATOM      7  C   UNL     1      24.474 -28.262  91.877  1.00  0.00     0.102 C 
ATOM      8  C   UNL     1      19.959 -28.685  92.474  1.00  0.00    -0.019 A 
ATOM      9  C   UNL     1      20.629 -28.770  90.032  1.00  0.00    -0.011 A 
ATOM     10  C   UNL     1      19.700 -28.705  91.089  1.00  0.00     0.011 A 
ATOM     11  C   UNL     1      22.995 -28.132  89.792  1.00  0.00    -0.007 C 
ATOM     12  C   UNL     1      18.323 -28.651  90.872  1.00  0.00     0.056 A 
ATOM     13  C   UNL     1      18.743 -28.604  93.099  1.00  0.00     0.099 A 
ATOM     14  C   UNL     1      24.012 -29.933  93.571  1.00  0.00     0.106 C 
ATOM     15  C   UNL     1      20.150 -28.785  88.725  1.00  0.00     0.009 A 
ATOM     16  C   UNL     1      17.847 -28.670  89.547  1.00  0.00     0.027 A 
ATOM     17  C   UNL     1      18.776 -28.740  88.493  1.00  0.00     0.003 A 
ENDROOT
BRANCH   6  18
ATOM     18  C   UNL     1      24.977 -26.555  90.074  1.00  0.00     0.230 C 
ATOM     19  O   UNL     1      25.043 -25.740  91.004  1.00  0.00    -0.274 OA
ATOM     20  N   UNL     1      25.407 -26.199  88.795  1.00  0.00    -0.343 N 
BRANCH  20  21
ATOM     21  C   UNL     1      25.952 -24.847  88.628  1.00  0.00     0.116 C 
ATOM     22  C   UNL     1      26.226 -24.484  87.176  1.00  0.00     0.027 C 
ENDBRANCH  20  21
BRANCH  20  23
ATOM     23  C   UNL     1      25.423 -27.063  87.608  1.00  0.00     0.116 C 
ATOM     24  C   UNL     1      26.599 -28.026  87.577  1.00  0.00     0.027 C 
ENDBRANCH  20  23
ENDBRANCH   6  18
BRANCH   2  25
ATOM     25  C   UNL     1      16.357 -28.510  92.512  1.00  0.00     0.227 C 
ATOM     26  O   UNL     1      15.661 -27.610  92.052  1.00  0.00    -0.274 OA
ATOM     27  C   UNL     1      15.837 -29.546  93.451  1.00  0.00     0.115 C 
ENDBRANCH   2  25
TORSDOF 4
ENDMDL
MODEL 7
REMARK VINA RESULT:    -8.288      2.755      5.004
REMARK INTER + INTRA:         -10.422
REMARK INTER:                  -9.849
REMARK INTRA:                  -0.573
REMARK UNBOUND:                -0.196
REMARK SMILES CCN(CC)C(=O)[C@@H]1C=C2c3cccc4c3c(cn4C(C)=O)C[C@H]2N(C)C1
REMARK SMILES IDX 25 1 19 2 24 3 10 4 23 5 8 6 27 7 17 8 11 9 16 10 9 11 15 12
REMARK SMILES IDX 18 13 26 14 12 15 14 16 13 17 6 18 7 19 3 20 2 21 1 22 4 23
REMARK SMILES IDX 5 24 20 25 22 26 21 27
REMARK H PARENT
ROOT
ATOM      1  N   UNL     1      19.925 -25.891  87.767  1.00  0.00    -0.298 NA
ATOM      2  N   UNL     1      17.147 -24.945  82.438  1.00  0.00    -0.287 N 
ATOM      3  C   UNL     1      19.396 -25.956  86.383  1.00  0.00     0.091 C 
ATOM      4  C   UNL     1      20.501 -26.260  85.334  1.00  0.00    -0.026 C 
ATOM      5  C   UNL     1      18.495 -24.748  85.926  1.00  0.00     0.061 C 
ATOM      6  C   UNL     1      22.283 -25.768  86.989  1.00  0.00     0.116 C 
ATOM      7  C   UNL     1      21.182 -25.138  87.866  1.00  0.00     0.102 C 
ATOM      8  C   UNL     1      18.100 -24.926  84.492  1.00  0.00    -0.019 A 
ATOM      9  C   UNL     1      20.032 -26.474  83.950  1.00  0.00    -0.011 A 
ATOM     10  C   UNL     1      18.861 -25.754  83.642  1.00  0.00     0.011 A 
ATOM     11  C   UNL     1      21.813 -26.207  85.627  1.00  0.00    -0.007 C 
ATOM     12  C   UNL     1      18.278 -25.778  82.375  1.00  0.00     0.056 A 
ATOM     13  C   UNL     1      17.066 -24.437  83.741  1.00  0.00     0.099 A 
ATOM     14  C   UNL     1      18.950 -25.454  88.757  1.00  0.00     0.106 C 
ATOM     15  C   UNL     1      20.622 -27.242  82.950  1.00  0.00     0.009 A 
ATOM     16  C   UNL     1      18.881 -26.560  81.370  1.00  0.00     0.027 A 
ATOM     17  C   UNL     1      20.047 -27.283  81.681  1.00  0.00     0.003 A 
ENDROOT
BRANCH   6  18
ATOM     18  C   UNL     1      23.527 -24.860  86.948  1.00  0.00     0.230 C 
ATOM     19  O   UNL     1      23.491 -23.864  86.212  1.00  0.00    -0.274 OA
ATOM     20  N   UNL     1      24.679 -25.154  87.678  1.00  0.00    -0.343 N 
BRANCH  20  21
ATOM     21  C   UNL     1      25.806 -24.223  87.546  1.00  0.00     0.116 C 
ATOM     22  C   UNL     1      27.061 -24.875  86.984  1.00  0.00     0.027 C 
ENDBRANCH  20  21
BRANCH  20  23
ATOM     23  C   UNL     1      24.857 -26.271  88.614  1.00  0.00     0.116 C 
ATOM     24  C   UNL     1      25.212 -27.582  87.931  1.00  0.00     0.027 C 
ENDBRANCH  20  23
ENDBRANCH   6  18
BRANCH   2  25
ATOM     25  C   UNL     1      16.195 -24.605  81.448  1.00  0.00     0.227 C 
ATOM     26  O   UNL     1      16.566 -24.005  80.443  1.00  0.00    -0.274 OA
ATOM     27  C   UNL     1      14.778 -25.006  81.683  1.00  0.00     0.115 C 
ENDBRANCH   2  25
TORSDOF 4
ENDMDL
MODEL 8
REMARK VINA RESULT:    -8.179      3.585      7.991
REMARK INTER + INTRA:         -10.287
REMARK INTER:                  -9.968
REMARK INTRA:                  -0.319
REMARK UNBOUND:                -0.196
REMARK SMILES CCN(CC)C(=O)[C@@H]1C=C2c3cccc4c3c(cn4C(C)=O)C[C@H]2N(C)C1
REMARK SMILES IDX 25 1 19 2 24 3 10 4 23 5 8 6 27 7 17 8 11 9 16 10 9 11 15 12
REMARK SMILES IDX 18 13 26 14 12 15 14 16 13 17 6 18 7 19 3 20 2 21 1 22 4 23
REMARK SMILES IDX 5 24 20 25 22 26 21 27
REMARK H PARENT
ROOT
ATOM      1  N   UNL     1      23.852 -25.618  87.059  1.00  0.00    -0.298 NA
ATOM      2  N   UNL     1      24.594 -27.925  92.641  1.00  0.00    -0.287 N 
ATOM      3  C   UNL     1      23.875 -26.452  88.286  1.00  0.00     0.091 C 
ATOM      4  C   UNL     1      22.488 -27.070  88.615  1.00  0.00    -0.026 C 
ATOM      5  C   UNL     1      24.521 -25.794  89.563  1.00  0.00     0.061 C 
ATOM      6  C   UNL     1      21.367 -25.545  87.010  1.00  0.00     0.116 C 
ATOM      7  C   UNL     1      22.680 -24.736  86.987  1.00  0.00     0.102 C 
ATOM      8  C   UNL     1      24.405 -26.728  90.727  1.00  0.00    -0.019 A 
ATOM      9  C   UNL     1      22.460 -28.021  89.744  1.00  0.00    -0.011 A 
ATOM     10  C   UNL     1      23.428 -27.743  90.730  1.00  0.00     0.011 A 
ATOM     11  C   UNL     1      21.355 -26.677  88.004  1.00  0.00    -0.007 C 
ATOM     12  C   UNL     1      23.540 -28.492  91.901  1.00  0.00     0.056 A 
ATOM     13  C   UNL     1      25.100 -26.849  91.900  1.00  0.00     0.099 A 
ATOM     14  C   UNL     1      25.092 -24.897  86.807  1.00  0.00     0.106 C 
ATOM     15  C   UNL     1      21.589 -29.088  89.950  1.00  0.00     0.009 A 
ATOM     16  C   UNL     1      22.656 -29.571  92.100  1.00  0.00     0.027 A 
ATOM     17  C   UNL     1      21.694 -29.851  91.112  1.00  0.00     0.003 A 
ENDROOT
BRANCH   6  18
ATOM     18  C   UNL     1      20.154 -24.604  87.135  1.00  0.00     0.230 C 
ATOM     19  O   UNL     1      20.090 -23.874  88.134  1.00  0.00    -0.274 OA
ATOM     20  N   UNL     1      19.133 -24.587  86.184  1.00  0.00    -0.343 N 
BRANCH  20  21
ATOM     21  C   UNL     1      18.021 -23.659  86.418  1.00  0.00     0.116 C 
ATOM     22  C   UNL     1      18.419 -22.197  86.282  1.00  0.00     0.027 C 
ENDBRANCH  20  21
BRANCH  20  23
ATOM     23  C   UNL     1      19.089 -25.363  84.938  1.00  0.00     0.116 C 
ATOM     24  C   UNL     1      18.015 -24.892  83.969  1.00  0.00     0.027 C 
ENDBRANCH  20  23
ENDBRANCH   6  18
BRANCH   2  25
ATOM     25  C   UNL     1      25.134 -28.281  93.898  1.00  0.00     0.227 C 
ATOM     26  O   UNL     1      25.643 -29.390  94.038  1.00  0.00    -0.274 OA
ATOM     27  C   UNL     1      25.058 -27.274  94.995  1.00  0.00     0.115 C 
ENDBRANCH   2  25
TORSDOF 4
ENDMDL
MODEL 9
REMARK VINA RESULT:    -8.178      3.323      7.837
REMARK INTER + INTRA:         -10.286
REMARK INTER:                  -9.713
REMARK INTRA:                  -0.573
REMARK UNBOUND:                -0.196
REMARK SMILES CCN(CC)C(=O)[C@@H]1C=C2c3cccc4c3c(cn4C(C)=O)C[C@H]2N(C)C1
REMARK SMILES IDX 25 1 19 2 24 3 10 4 23 5 8 6 27 7 17 8 11 9 16 10 9 11 15 12
REMARK SMILES IDX 18 13 26 14 12 15 14 16 13 17 6 18 7 19 3 20 2 21 1 22 4 23
REMARK SMILES IDX 5 24 20 25 22 26 21 27
REMARK H PARENT
ROOT
ATOM      1  N   UNL     1      23.968 -25.526  86.962  1.00  0.00    -0.298 NA
ATOM      2  N   UNL     1      24.033 -27.128  92.832  1.00  0.00    -0.287 N 
ATOM      3  C   UNL     1      23.897 -26.222  88.270  1.00  0.00     0.091 C 
ATOM      4  C   UNL     1      22.588 -27.041  88.441  1.00  0.00    -0.026 C 
ATOM      5  C   UNL     1      24.188 -25.343  89.543  1.00  0.00     0.061 C 
ATOM      6  C   UNL     1      21.553 -25.896  86.498  1.00  0.00     0.116 C 
ATOM      7  C   UNL     1      22.705 -24.875  86.590  1.00  0.00     0.102 C 
ATOM      8  C   UNL     1      24.010 -26.169  90.779  1.00  0.00    -0.019 A 
ATOM      9  C   UNL     1      22.505 -27.872  89.660  1.00  0.00    -0.011 A 
ATOM     10  C   UNL     1      23.220 -27.336  90.748  1.00  0.00     0.011 A 
ATOM     11  C   UNL     1      21.539 -26.914  87.608  1.00  0.00    -0.007 C 
ATOM     12  C   UNL     1      23.233 -27.939  92.006  1.00  0.00     0.056 A 
ATOM     13  C   UNL     1      24.490 -26.054  92.056  1.00  0.00     0.099 A 
ATOM     14  C   UNL     1      25.104 -24.624  86.829  1.00  0.00     0.106 C 
ATOM     15  C   UNL     1      21.789 -29.051  89.850  1.00  0.00     0.009 A 
ATOM     16  C   UNL     1      22.509 -29.133  92.189  1.00  0.00     0.027 A 
ATOM     17  C   UNL     1      21.799 -29.670  91.099  1.00  0.00     0.003 A 
ENDROOT
BRANCH   6  18
ATOM     18  C   UNL     1      20.205 -25.176  86.305  1.00  0.00     0.230 C 
ATOM     19  O   UNL     1      19.640 -25.293  85.209  1.00  0.00    -0.274 OA
ATOM     20  N   UNL     1      19.643 -24.383  87.306  1.00  0.00    -0.343 N 
BRANCH  20  21
ATOM     21  C   UNL     1      18.363 -23.734  87.001  1.00  0.00     0.116 C 
ATOM     22  C   UNL     1      18.517 -22.299  86.519  1.00  0.00     0.027 C 
ENDBRANCH  20  21
BRANCH  20  23
ATOM     23  C   UNL     1      20.176 -24.179  88.659  1.00  0.00     0.116 C 
ATOM     24  C   UNL     1      19.387 -24.907  89.736  1.00  0.00     0.027 C 
ENDBRANCH  20  23
ENDBRANCH   6  18
BRANCH   2  25
ATOM     25  C   UNL     1      24.384 -27.263  94.195  1.00  0.00     0.227 C 
ATOM     26  O   UNL     1      23.514 -27.136  95.052  1.00  0.00    -0.274 OA
ATOM     27  C   UNL     1      25.810 -27.560  94.517  1.00  0.00     0.115 C 
ENDBRANCH   2  25
TORSDOF 4
ENDMDL
MODEL 10
REMARK VINA RESULT:    -8.168      4.918      7.299
REMARK INTER + INTRA:         -10.274
REMARK INTER:                  -9.809
REMARK INTRA:                  -0.465
REMARK UNBOUND:                -0.196
REMARK SMILES CCN(CC)C(=O)[C@@H]1C=C2c3cccc4c3c(cn4C(C)=O)C[C@H]2N(C)C1
REMARK SMILES IDX 25 1 19 2 24 3 10 4 23 5 8 6 27 7 17 8 11 9 16 10 9 11 15 12
REMARK SMILES IDX 18 13 26 14 12 15 14 16 13 17 6 18 7 19 3 20 2 21 1 22 4 23
REMARK SMILES IDX 5 24 20 25 22 26 21 27
REMARK H PARENT
ROOT
ATOM      1  N   UNL     1      23.982 -28.995  91.055  1.00  0.00    -0.298 NA
ATOM      2  N   UNL     1      21.179 -25.052  87.364  1.00  0.00    -0.287 N 
ATOM      3  C   UNL     1      23.574 -28.080  89.960  1.00  0.00     0.091 C 
ATOM      4  C   UNL     1      24.701 -27.089  89.559  1.00  0.00    -0.026 C 
ATOM      5  C   UNL     1      22.201 -27.333  90.152  1.00  0.00     0.061 C 
ATOM      6  C   UNL     1      25.983 -27.630  91.614  1.00  0.00     0.116 C 
ATOM      7  C   UNL     1      24.701 -28.310  92.136  1.00  0.00     0.102 C 
ATOM      8  C   UNL     1      21.968 -26.402  89.004  1.00  0.00    -0.019 A 
ATOM      9  C   UNL     1      24.419 -26.238  88.385  1.00  0.00    -0.011 A 
ATOM     10  C   UNL     1      23.051 -25.947  88.225  1.00  0.00     0.011 A 
ATOM     11  C   UNL     1      25.812 -26.916  90.298  1.00  0.00    -0.007 C 
ATOM     12  C   UNL     1      22.575 -25.120  87.207  1.00  0.00     0.056 A 
ATOM     13  C   UNL     1      20.838 -25.842  88.470  1.00  0.00     0.099 A 
ATOM     14  C   UNL     1      22.903 -29.831  91.564  1.00  0.00     0.106 C 
ATOM     15  C   UNL     1      25.327 -25.681  87.488  1.00  0.00     0.009 A 
ATOM     16  C   UNL     1      23.500 -24.563  86.302  1.00  0.00     0.027 A 
ATOM     17  C   UNL     1      24.866 -24.859  86.461  1.00  0.00     0.003 A 
ENDROOT
BRANCH   6  18
ATOM     18  C   UNL     1      26.617 -26.754  92.711  1.00  0.00     0.230 C 
ATOM     19  O   UNL     1      25.903 -26.418  93.666  1.00  0.00    -0.274 OA
ATOM     20  N   UNL     1      27.938 -26.313  92.631  1.00  0.00    -0.343 N 
BRANCH  20  21
ATOM     21  C   UNL     1      28.426 -25.471  93.729  1.00  0.00     0.116 C 
ATOM     22  C   UNL     1      28.961 -26.271  94.908  1.00  0.00     0.027 C 
ENDBRANCH  20  21
BRANCH  20  23
ATOM     23  C   UNL     1      28.910 -26.656  91.585  1.00  0.00     0.116 C 
ATOM     24  C   UNL     1      29.679 -27.936  91.870  1.00  0.00     0.027 C 
ENDBRANCH  20  23
ENDBRANCH   6  18
BRANCH   2  25
ATOM     25  C   UNL     1      20.199 -24.359  86.617  1.00  0.00     0.227 C 
ATOM     26  O   UNL     1      20.189 -23.131  86.637  1.00  0.00    -0.274 OA
ATOM     27  C   UNL     1      19.224 -25.169  85.832  1.00  0.00     0.115 C 
ENDBRANCH   2  25
TORSDOF 4
ENDMDL
MODEL 11
REMARK VINA RESULT:    -8.081      4.499      7.101
REMARK INTER + INTRA:         -10.167
REMARK INTER:                  -9.584
REMARK INTRA:                  -0.583
REMARK UNBOUND:                -0.196
REMARK SMILES CCN(CC)C(=O)[C@@H]1C=C2c3cccc4c3c(cn4C(C)=O)C[C@H]2N(C)C1
REMARK SMILES IDX 25 1 19 2 24 3 10 4 23 5 8 6 27 7 17 8 11 9 16 10 9 11 15 12
REMARK SMILES IDX 18 13 26 14 12 15 14 16 13 17 6 18 7 19 3 20 2 21 1 22 4 23
REMARK SMILES IDX 5 24 20 25 22 26 21 27
REMARK H PARENT
ROOT
ATOM      1  N   UNL     1      26.117 -26.841  88.518  1.00  0.00    -0.298 NA
ATOM      2  N   UNL     1      20.078 -27.436  88.967  1.00  0.00    -0.287 N 
ATOM      3  C   UNL     1      24.647 -26.648  88.586  1.00  0.00     0.091 C 
ATOM      4  C   UNL     1      24.240 -25.514  89.567  1.00  0.00    -0.026 C 
ATOM      5  C   UNL     1      23.785 -27.944  88.825  1.00  0.00     0.061 C 
ATOM      6  C   UNL     1      26.514 -25.480  90.560  1.00  0.00     0.116 C 
ATOM      7  C   UNL     1      26.760 -26.820  89.837  1.00  0.00     0.102 C 
ATOM      8  C   UNL     1      22.339 -27.574  88.940  1.00  0.00    -0.019 A 
ATOM      9  C   UNL     1      22.803 -25.170  89.589  1.00  0.00    -0.011 A 
ATOM     10  C   UNL     1      21.965 -26.261  89.289  1.00  0.00     0.011 A 
ATOM     11  C   UNL     1      25.104 -24.962  90.438  1.00  0.00    -0.007 C 
ATOM     12  C   UNL     1      20.573 -26.162  89.302  1.00  0.00     0.056 A 
ATOM     13  C   UNL     1      21.178 -28.277  88.755  1.00  0.00     0.099 A 
ATOM     14  C   UNL     1      26.528 -27.996  87.731  1.00  0.00     0.106 C 
ATOM     15  C   UNL     1      22.216 -23.947  89.905  1.00  0.00     0.009 A 
ATOM     16  C   UNL     1      19.988 -24.921  89.619  1.00  0.00     0.027 A 
ATOM     17  C   UNL     1      20.827 -23.831  89.913  1.00  0.00     0.003 A 
ENDROOT
BRANCH   6  18
ATOM     18  C   UNL     1      27.022 -25.546  92.012  1.00  0.00     0.230 C 
ATOM     19  O   UNL     1      27.822 -24.678  92.385  1.00  0.00    -0.274 OA
ATOM     20  N   UNL     1      26.633 -26.566  92.883  1.00  0.00    -0.343 N 
BRANCH  20  21
ATOM     21  C   UNL     1      27.195 -26.533  94.238  1.00  0.00     0.116 C 
ATOM     22  C   UNL     1      28.309 -27.548  94.451  1.00  0.00     0.027 C 
ENDBRANCH  20  21
BRANCH  20  23
ATOM     23  C   UNL     1      25.671 -27.637  92.598  1.00  0.00     0.116 C 
ATOM     24  C   UNL     1      24.250 -27.303  93.023  1.00  0.00     0.027 C 
ENDBRANCH  20  23
ENDBRANCH   6  18
BRANCH   2  25
ATOM     25  C   UNL     1      18.750 -27.903  88.836  1.00  0.00     0.227 C 
ATOM     26  O   UNL     1      18.055 -27.480  87.916  1.00  0.00    -0.274 OA
ATOM     27  C   UNL     1      18.264 -28.900  89.834  1.00  0.00     0.115 C 
ENDBRANCH   2  25
TORSDOF 4
ENDMDL
MODEL 12
REMARK VINA RESULT:    -8.055      4.507      7.730
REMARK INTER + INTRA:         -10.135
REMARK INTER:                  -9.754
REMARK INTRA:                  -0.381
REMARK UNBOUND:                -0.196
REMARK SMILES CCN(CC)C(=O)[C@@H]1C=C2c3cccc4c3c(cn4C(C)=O)C[C@H]2N(C)C1
REMARK SMILES IDX 25 1 19 2 24 3 10 4 23 5 8 6 27 7 17 8 11 9 16 10 9 11 15 12
REMARK SMILES IDX 18 13 26 14 12 15 14 16 13 17 6 18 7 19 3 20 2 21 1 22 4 23
REMARK SMILES IDX 5 24 20 25 22 26 21 27
REMARK H PARENT
ROOT
ATOM      1  N   UNL     1      20.169 -28.404  89.104  1.00  0.00    -0.298 NA
ATOM      2  N   UNL     1      25.359 -26.037  91.222  1.00  0.00    -0.287 N 
ATOM      3  C   UNL     1      21.494 -28.147  89.720  1.00  0.00     0.091 C 
ATOM      4  C   UNL     1      21.615 -28.749  91.147  1.00  0.00    -0.026 C 
ATOM      5  C   UNL     1      22.000 -26.656  89.687  1.00  0.00     0.061 C 
ATOM      6  C   UNL     1      19.162 -29.100  91.268  1.00  0.00     0.116 C 
ATOM      7  C   UNL     1      19.052 -28.184  90.032  1.00  0.00     0.102 C 
ATOM      8  C   UNL     1      23.309 -26.551  90.405  1.00  0.00    -0.019 A 
ATOM      9  C   UNL     1      22.950 -28.653  91.773  1.00  0.00    -0.011 A 
ATOM     10  C   UNL     1      23.682 -27.526  91.352  1.00  0.00     0.011 A 
ATOM     11  C   UNL     1      20.554 -29.214  91.831  1.00  0.00    -0.007 C 
ATOM     12  C   UNL     1      24.947 -27.223  91.857  1.00  0.00     0.056 A 
ATOM     13  C   UNL     1      24.338 -25.649  90.344  1.00  0.00     0.099 A 
ATOM     14  C   UNL     1      19.962 -27.722  87.834  1.00  0.00     0.106 C 
ATOM     15  C   UNL     1      23.518 -29.497  92.724  1.00  0.00     0.009 A 
ATOM     16  C   UNL     1      25.514 -28.083  92.817  1.00  0.00     0.027 A 
ATOM     17  C   UNL     1      24.784 -29.212  93.232  1.00  0.00     0.003 A 
ENDROOT
BRANCH   6  18
ATOM     18  C   UNL     1      18.102 -28.720  92.319  1.00  0.00     0.230 C 
ATOM     19  O   UNL     1      18.500 -28.333  93.427  1.00  0.00    -0.274 OA
ATOM     20  N   UNL     1      16.735 -28.837  92.064  1.00  0.00    -0.343 N 
BRANCH  20  21
ATOM     21  C   UNL     1      15.821 -28.460  93.147  1.00  0.00     0.116 C 
ATOM     22  C   UNL     1      14.645 -27.617  92.675  1.00  0.00     0.027 C 
ENDBRANCH  20  21
BRANCH  20  23
ATOM     23  C   UNL     1      16.117 -29.245  90.796  1.00  0.00     0.116 C 
ATOM     24  C   UNL     1      15.557 -30.658  90.822  1.00  0.00     0.027 C 
ENDBRANCH  20  23
ENDBRANCH   6  18
BRANCH   2  25
ATOM     25  C   UNL     1      26.548 -25.284  91.357  1.00  0.00     0.227 C 
ATOM     26  O   UNL     1      27.524 -25.581  90.673  1.00  0.00    -0.274 OA
ATOM     27  C   UNL     1      26.547 -24.155  92.331  1.00  0.00     0.115 C 
ENDBRANCH   2  25
TORSDOF 4
ENDMDL
MODEL 13
REMARK VINA RESULT:    -7.948      3.208      4.967
REMARK INTER + INTRA:         -10.002
REMARK INTER:                  -9.798
REMARK INTRA:                  -0.204
REMARK UNBOUND:                -0.196
REMARK SMILES CCN(CC)C(=O)[C@@H]1C=C2c3cccc4c3c(cn4C(C)=O)C[C@H]2N(C)C1
REMARK SMILES IDX 25 1 19 2 24 3 10 4 23 5 8 6 27 7 17 8 11 9 16 10 9 11 15 12
REMARK SMILES IDX 18 13 26 14 12 15 14 16 13 17 6 18 7 19 3 20 2 21 1 22 4 23
REMARK SMILES IDX 5 24 20 25 22 26 21 27
REMARK H PARENT
ROOT
ATOM      1  N   UNL     1      25.573 -24.819  88.422  1.00  0.00    -0.298 NA
ATOM      2  N   UNL     1      20.012 -25.278  85.995  1.00  0.00    -0.287 N 
ATOM      3  C   UNL     1      24.142 -24.684  88.053  1.00  0.00     0.091 C 
ATOM      4  C   UNL     1      23.202 -24.698  89.290  1.00  0.00    -0.026 C 
ATOM      5  C   UNL     1      23.618 -25.656  86.930  1.00  0.00     0.061 C 
ATOM      6  C   UNL     1      25.032 -25.540  90.740  1.00  0.00     0.116 C 
ATOM      7  C   UNL     1      25.806 -25.849  89.443  1.00  0.00     0.102 C 
ATOM      8  C   UNL     1      22.150 -25.445  86.724  1.00  0.00    -0.019 A 
ATOM      9  C   UNL     1      21.775 -24.431  89.016  1.00  0.00    -0.011 A 
ATOM     10  C   UNL     1      21.366 -24.859  87.738  1.00  0.00     0.011 A 
ATOM     11  C   UNL     1      23.623 -25.054  90.518  1.00  0.00    -0.007 C 
ATOM     12  C   UNL     1      20.047 -24.745  87.297  1.00  0.00     0.056 A 
ATOM     13  C   UNL     1      21.309 -25.698  85.674  1.00  0.00     0.099 A 
ATOM     14  C   UNL     1      26.469 -24.969  87.284  1.00  0.00     0.106 C 
ATOM     15  C   UNL     1      20.826 -23.869  89.864  1.00  0.00     0.009 A 
ATOM     16  C   UNL     1      19.094 -24.172  88.161  1.00  0.00     0.027 A 
ATOM     17  C   UNL     1      19.506 -23.740  89.435  1.00  0.00     0.003 A 
ENDROOT
BRANCH   6  18
ATOM     18  C   UNL     1      25.127 -26.722  91.722  1.00  0.00     0.230 C 
ATOM     19  O   UNL     1      25.990 -26.668  92.609  1.00  0.00    -0.274 OA
ATOM     20  N   UNL     1      24.303 -27.842  91.610  1.00  0.00    -0.343 N 
BRANCH  20  21
ATOM     21  C   UNL     1      24.497 -28.913  92.594  1.00  0.00     0.116 C 
ATOM     22  C   UNL     1      23.436 -28.924  93.686  1.00  0.00     0.027 C 
ENDBRANCH  20  21
BRANCH  20  23
ATOM     23  C   UNL     1      23.218 -28.033  90.639  1.00  0.00     0.116 C 
ATOM     24  C   UNL     1      23.644 -28.804  89.400  1.00  0.00     0.027 C 
ENDBRANCH  20  23
ENDBRANCH   6  18
BRANCH   2  25
ATOM     25  C   UNL     1      18.939 -25.416  85.084  1.00  0.00     0.227 C 
ATOM     26  O   UNL     1      19.184 -25.578  83.892  1.00  0.00    -0.274 OA
ATOM     27  C   UNL     1      17.553 -25.361  85.632  1.00  0.00     0.115 C 
ENDBRANCH   2  25
TORSDOF 4
ENDMDL
MODEL 14
REMARK VINA RESULT:    -7.910      3.731      6.369
REMARK INTER + INTRA:          -9.956
REMARK INTER:                  -9.464
REMARK INTRA:                  -0.492
REMARK UNBOUND:                -0.196
REMARK SMILES CCN(CC)C(=O)[C@@H]1C=C2c3cccc4c3c(cn4C(C)=O)C[C@H]2N(C)C1
REMARK SMILES IDX 25 1 19 2 24 3 10 4 23 5 8 6 27 7 17 8 11 9 16 10 9 11 15 12
REMARK SMILES IDX 18 13 26 14 12 15 14 16 13 17 6 18 7 19 3 20 2 21 1 22 4 23
REMARK SMILES IDX 5 24 20 25 22 26 21 27
REMARK H PARENT
ROOT
ATOM      1  N   UNL     1      18.966 -26.663  87.614  1.00  0.00    -0.298 NA
ATOM      2  N   UNL     1      24.254 -24.997  90.120  1.00  0.00    -0.287 N 
ATOM      3  C   UNL     1      20.364 -26.554  88.099  1.00  0.00     0.091 C 
ATOM      4  C   UNL     1      20.846 -27.840  88.826  1.00  0.00    -0.026 C 
ATOM      5  C   UNL     1      20.713 -25.265  88.932  1.00  0.00     0.061 C 
ATOM      6  C   UNL     1      18.519 -28.686  88.989  1.00  0.00     0.116 C 
ATOM      7  C   UNL     1      18.062 -27.265  88.603  1.00  0.00     0.102 C 
ATOM      8  C   UNL     1      22.132 -25.337  89.404  1.00  0.00    -0.019 A 
ATOM      9  C   UNL     1      22.270 -27.860  89.217  1.00  0.00    -0.011 A 
ATOM     10  C   UNL     1      22.788 -26.581  89.499  1.00  0.00     0.011 A 
ATOM     11  C   UNL     1      20.005 -28.823  89.196  1.00  0.00    -0.007 C 
ATOM     12  C   UNL     1      24.099 -26.383  89.932  1.00  0.00     0.056 A 
ATOM     13  C   UNL     1      23.037 -24.386  89.792  1.00  0.00     0.099 A 
ATOM     14  C   UNL     1      18.428 -25.425  87.069  1.00  0.00     0.106 C 
ATOM     15  C   UNL     1      23.104 -28.964  89.373  1.00  0.00     0.009 A 
ATOM     16  C   UNL     1      24.936 -27.505  90.084  1.00  0.00     0.027 A 
ATOM     17  C   UNL     1      24.420 -28.781  89.797  1.00  0.00     0.003 A 
ENDROOT
BRANCH   6  18
ATOM     18  C   UNL     1      17.682 -29.223  90.165  1.00  0.00     0.230 C 
ATOM     19  O   UNL     1      16.795 -30.050  89.913  1.00  0.00    -0.274 OA
ATOM     20  N   UNL     1      17.877 -28.777  91.473  1.00  0.00    -0.343 N 
BRANCH  20  21
ATOM     21  C   UNL     1      17.008 -29.349  92.508  1.00  0.00     0.116 C 
ATOM     22  C   UNL     1      15.802 -28.479  92.829  1.00  0.00     0.027 C 
ENDBRANCH  20  21
BRANCH  20  23
ATOM     23  C   UNL     1      18.905 -27.833  91.928  1.00  0.00     0.116 C 
ATOM     24  C   UNL     1      20.011 -28.489  92.741  1.00  0.00     0.027 C 
ENDBRANCH  20  23
ENDBRANCH   6  18
BRANCH   2  25
ATOM     25  C   UNL     1      25.372 -24.244  90.550  1.00  0.00     0.227 C 
ATOM     26  O   UNL     1      25.940 -23.508  89.749  1.00  0.00    -0.274 OA
ATOM     27  C   UNL     1      25.797 -24.387  91.972  1.00  0.00     0.115 C 
ENDBRANCH   2  25
TORSDOF 4
ENDMDL
MODEL 15
REMARK VINA RESULT:    -7.858      4.274      5.320
REMARK INTER + INTRA:          -9.891
REMARK INTER:                  -9.698
REMARK INTRA:                  -0.193
REMARK UNBOUND:                -0.196
REMARK SMILES CCN(CC)C(=O)[C@@H]1C=C2c3cccc4c3c(cn4C(C)=O)C[C@H]2N(C)C1
REMARK SMILES IDX 25 1 19 2 24 3 10 4 23 5 8 6 27 7 17 8 11 9 16 10 9 11 15 12
REMARK SMILES IDX 18 13 26 14 12 15 14 16 13 17 6 18 7 19 3 20 2 21 1 22 4 23
REMARK SMILES IDX 5 24 20 25 22 26 21 27
REMARK H PARENT
ROOT
ATOM      1  N   UNL     1      21.873 -28.650  92.037  1.00  0.00    -0.298 NA
ATOM      2  N   UNL     1      24.602 -25.858  87.369  1.00  0.00    -0.287 N 
ATOM      3  C   UNL     1      22.369 -27.696  91.014  1.00  0.00     0.091 C 
ATOM      4  C   UNL     1      21.225 -26.874  90.359  1.00  0.00    -0.026 C 
ATOM      5  C   UNL     1      23.340 -28.288  89.924  1.00  0.00     0.061 C 
ATOM      6  C   UNL     1      19.513 -28.410  91.291  1.00  0.00     0.116 C 
ATOM      7  C   UNL     1      20.672 -29.378  91.608  1.00  0.00     0.102 C 
ATOM      8  C   UNL     1      23.693 -27.224  88.931  1.00  0.00    -0.019 A 
ATOM      9  C   UNL     1      21.651 -25.809  89.429  1.00  0.00    -0.011 A 
ATOM     10  C   UNL     1      22.861 -26.098  88.769  1.00  0.00     0.011 A 
ATOM     11  C   UNL     1      19.925 -27.184  90.519  1.00  0.00    -0.007 C 
ATOM     12  C   UNL     1      23.415 -25.245  87.814  1.00  0.00     0.056 A 
ATOM     13  C   UNL     1      24.743 -27.065  88.067  1.00  0.00     0.099 A 
ATOM     14  C   UNL     1      22.895 -29.547  92.559  1.00  0.00     0.106 C 
ATOM     15  C   UNL     1      20.990 -24.624  89.117  1.00  0.00     0.009 A 
ATOM     16  C   UNL     1      22.742 -24.048  87.506  1.00  0.00     0.027 A 
ATOM     17  C   UNL     1      21.536 -23.757  88.171  1.00  0.00     0.003 A 
ENDROOT
BRANCH   6  18
ATOM     18  C   UNL     1      18.333 -29.170  90.656  1.00  0.00     0.230 C 
ATOM     19  O   UNL     1      18.329 -29.305  89.424  1.00  0.00    -0.274 OA
ATOM     20  N   UNL     1      17.276 -29.662  91.421  1.00  0.00    -0.343 N 
BRANCH  20  21
ATOM     21  C   UNL     1      16.200 -30.354  90.703  1.00  0.00     0.116 C 
ATOM     22  C   UNL     1      14.852 -29.656  90.820  1.00  0.00     0.027 C 
ENDBRANCH  20  21
BRANCH  20  23
ATOM     23  C   UNL     1      17.159 -29.609  92.884  1.00  0.00     0.116 C 
ATOM     24  C   UNL     1      16.295 -28.460  93.381  1.00  0.00     0.027 C 
ENDBRANCH  20  23
ENDBRANCH   6  18
BRANCH   2  25
ATOM     25  C   UNL     1      25.553 -25.438  86.412  1.00  0.00     0.227 C 
ATOM     26  O   UNL     1      25.265 -24.526  85.642  1.00  0.00    -0.274 OA
ATOM     27  C   UNL     1      26.873 -26.134  86.395  1.00  0.00     0.115 C 
ENDBRANCH   2  25
TORSDOF 4
ENDMDL
MODEL 16
REMARK VINA RESULT:    -7.815      4.868      8.186
REMARK INTER + INTRA:          -9.839
REMARK INTER:                  -9.302
REMARK INTRA:                  -0.537
REMARK UNBOUND:                -0.196
REMARK SMILES CCN(CC)C(=O)[C@@H]1C=C2c3cccc4c3c(cn4C(C)=O)C[C@H]2N(C)C1
REMARK SMILES IDX 25 1 19 2 24 3 10 4 23 5 8 6 27 7 17 8 11 9 16 10 9 11 15 12
REMARK SMILES IDX 18 13 26 14 12 15 14 16 13 17 6 18 7 19 3 20 2 21 1 22 4 23
REMARK SMILES IDX 5 24 20 25 22 26 21 27
REMARK H PARENT
ROOT
ATOM      1  N   UNL     1      24.326 -29.302  92.668  1.00  0.00    -0.298 NA
ATOM      2  N   UNL     1      18.455 -29.164  91.075  1.00  0.00    -0.287 N 
ATOM      3  C   UNL     1      23.020 -29.289  91.963  1.00  0.00     0.091 C 
ATOM      4  C   UNL     1      22.981 -28.264  90.797  1.00  0.00    -0.026 C 
ATOM      5  C   UNL     1      21.740 -29.166  92.872  1.00  0.00     0.061 C 
ATOM      6  C   UNL     1      25.050 -27.168  91.618  1.00  0.00     0.116 C 
ATOM      7  C   UNL     1      24.850 -27.955  92.928  1.00  0.00     0.102 C 
ATOM      8  C   UNL     1      20.515 -29.096  92.013  1.00  0.00    -0.019 A 
ATOM      9  C   UNL     1      21.762 -28.288  89.961  1.00  0.00    -0.011 A 
ATOM     10  C   UNL     1      20.612 -28.689  90.668  1.00  0.00     0.011 A 
ATOM     11  C   UNL     1      23.928 -27.324  90.625  1.00  0.00    -0.007 C 
ATOM     12  C   UNL     1      19.349 -28.734  90.077  1.00  0.00     0.056 A 
ATOM     13  C   UNL     1      19.195 -29.375  92.245  1.00  0.00     0.099 A 
ATOM     14  C   UNL     1      24.348 -30.135  93.862  1.00  0.00     0.106 C 
ATOM     15  C   UNL     1      21.629 -27.928  88.623  1.00  0.00     0.009 A 
ATOM     16  C   UNL     1      19.224 -28.371  88.722  1.00  0.00     0.027 A 
ATOM     17  C   UNL     1      20.375 -27.976  88.017  1.00  0.00     0.003 A 
ENDROOT
BRANCH   6  18
ATOM     18  C   UNL     1      25.408 -25.700  91.917  1.00  0.00     0.230 C 
ATOM     19  O   UNL     1      24.524 -24.847  91.761  1.00  0.00    -0.274 OA
ATOM     20  N   UNL     1      26.690 -25.320  92.315  1.00  0.00    -0.343 N 
BRANCH  20  21
ATOM     21  C   UNL     1      26.916 -23.891  92.557  1.00  0.00     0.116 C 
ATOM     22  C   UNL     1      28.183 -23.608  93.351  1.00  0.00     0.027 C 
ENDBRANCH  20  21
BRANCH  20  23
ATOM     23  C   UNL     1      27.824 -26.216  92.575  1.00  0.00     0.116 C 
ATOM     24  C   UNL     1      28.606 -26.581  91.323  1.00  0.00     0.027 C 
ENDBRANCH  20  23
ENDBRANCH   6  18
BRANCH   2  25
ATOM     25  C   UNL     1      17.058 -29.383  91.030  1.00  0.00     0.227 C 
ATOM     26  O   UNL     1      16.609 -30.220  90.252  1.00  0.00    -0.274 OA
ATOM     27  C   UNL     1      16.201 -28.576  91.945  1.00  0.00     0.115 C 
ENDBRANCH   2  25
TORSDOF 4
ENDMDL
MODEL 17
REMARK VINA RESULT:    -7.806      2.973      7.403
REMARK INTER + INTRA:          -9.828
REMARK INTER:                  -9.328
REMARK INTRA:                  -0.499
REMARK UNBOUND:                -0.196
REMARK SMILES CCN(CC)C(=O)[C@@H]1C=C2c3cccc4c3c(cn4C(C)=O)C[C@H]2N(C)C1
REMARK SMILES IDX 25 1 19 2 24 3 10 4 23 5 8 6 27 7 17 8 11 9 16 10 9 11 15 12
REMARK SMILES IDX 18 13 26 14 12 15 14 16 13 17 6 18 7 19 3 20 2 21 1 22 4 23
REMARK SMILES IDX 5 24 20 25 22 26 21 27
REMARK H PARENT
ROOT
ATOM      1  N   UNL     1      18.698 -26.862  89.114  1.00  0.00    -0.298 NA
ATOM      2  N   UNL     1      24.471 -27.307  90.983  1.00  0.00    -0.287 N 
ATOM      3  C   UNL     1      20.079 -26.633  89.607  1.00  0.00     0.091 C 
ATOM      4  C   UNL     1      20.797 -25.479  88.854  1.00  0.00    -0.026 C 
ATOM      5  C   UNL     1      21.000 -27.905  89.711  1.00  0.00     0.061 C 
ATOM      6  C   UNL     1      19.068 -25.488  87.075  1.00  0.00     0.116 C 
ATOM      7  C   UNL     1      18.601 -26.841  87.649  1.00  0.00     0.102 C 
ATOM      8  C   UNL     1      22.373 -27.500  90.153  1.00  0.00    -0.019 A 
ATOM      9  C   UNL     1      22.126 -25.100  89.378  1.00  0.00    -0.011 A 
ATOM     10  C   UNL     1      22.816 -26.175  89.972  1.00  0.00     0.011 A 
ATOM     11  C   UNL     1      20.312 -24.938  87.721  1.00  0.00    -0.007 C 
ATOM     12  C   UNL     1      24.106 -26.042  90.487  1.00  0.00     0.056 A 
ATOM     13  C   UNL     1      23.395 -28.176  90.763  1.00  0.00     0.099 A 
ATOM     14  C   UNL     1      18.050 -28.034  89.686  1.00  0.00     0.106 C 
ATOM     15  C   UNL     1      22.757 -23.861  89.309  1.00  0.00     0.009 A 
ATOM     16  C   UNL     1      24.736 -24.785  90.415  1.00  0.00     0.027 A 
ATOM     17  C   UNL     1      24.042 -23.711  89.827  1.00  0.00     0.003 A 
ENDROOT
BRANCH   6  18
ATOM     18  C   UNL     1      19.149 -25.552  85.538  1.00  0.00     0.230 C 
ATOM     19  O   UNL     1      20.241 -25.838  85.029  1.00  0.00    -0.274 OA
ATOM     20  N   UNL     1      18.050 -25.262  84.729  1.00  0.00    -0.343 N 
BRANCH  20  21
ATOM     21  C   UNL     1      18.252 -25.340  83.278  1.00  0.00     0.116 C 
ATOM     22  C   UNL     1      17.202 -24.578  82.483  1.00  0.00     0.027 C 
ENDBRANCH  20  21
BRANCH  20  23
ATOM     23  C   UNL     1      16.691 -24.943  85.185  1.00  0.00     0.116 C 
ATOM     24  C   UNL     1      15.753 -26.141  85.178  1.00  0.00     0.027 C 
ENDBRANCH  20  23
ENDBRANCH   6  18
BRANCH   2  25
ATOM     25  C   UNL     1      25.663 -27.744  91.606  1.00  0.00     0.227 C 
ATOM     26  O   UNL     1      25.596 -28.314  92.692  1.00  0.00    -0.274 OA
ATOM     27  C   UNL     1      26.950 -27.488  90.898  1.00  0.00     0.115 C 
ENDBRANCH   2  25
TORSDOF 4
ENDMDL
MODEL 18
REMARK VINA RESULT:    -7.765      3.155      6.535
REMARK INTER + INTRA:          -9.777
REMARK INTER:                  -9.647
REMARK INTRA:                  -0.129
REMARK UNBOUND:                -0.196
REMARK SMILES CCN(CC)C(=O)[C@@H]1C=C2c3cccc4c3c(cn4C(C)=O)C[C@H]2N(C)C1
REMARK SMILES IDX 25 1 19 2 24 3 10 4 23 5 8 6 27 7 17 8 11 9 16 10 9 11 15 12
REMARK SMILES IDX 18 13 26 14 12 15 14 16 13 17 6 18 7 19 3 20 2 21 1 22 4 23
REMARK SMILES IDX 5 24 20 25 22 26 21 27
REMARK H PARENT
ROOT
ATOM      1  N   UNL     1      18.991 -27.347  89.341  1.00  0.00    -0.298 NA
ATOM      2  N   UNL     1      25.067 -27.332  89.011  1.00  0.00    -0.287 N 
ATOM      3  C   UNL     1      20.442 -27.053  89.437  1.00  0.00     0.091 C 
ATOM      4  C   UNL     1      20.783 -25.593  89.031  1.00  0.00    -0.026 C 
ATOM      5  C   UNL     1      21.408 -28.079  88.734  1.00  0.00     0.061 C 
ATOM      6  C   UNL     1      18.537 -25.291  88.020  1.00  0.00     0.116 C 
ATOM      7  C   UNL     1      18.379 -26.822  88.114  1.00  0.00     0.102 C 
ATOM      8  C   UNL     1      22.823 -27.608  88.858  1.00  0.00    -0.019 A 
ATOM      9  C   UNL     1      22.188 -25.183  89.229  1.00  0.00    -0.011 A 
ATOM     10  C   UNL     1      23.102 -26.247  89.099  1.00  0.00     0.011 A 
ATOM     11  C   UNL     1      19.899 -24.784  88.418  1.00  0.00    -0.007 C 
ATOM     12  C   UNL     1      24.481 -26.067  89.203  1.00  0.00     0.056 A 
ATOM     13  C   UNL     1      24.030 -28.251  88.801  1.00  0.00     0.099 A 
ATOM     14  C   UNL     1      18.652 -28.747  89.561  1.00  0.00     0.106 C 
ATOM     15  C   UNL     1      22.686 -23.906  89.475  1.00  0.00     0.009 A 
ATOM     16  C   UNL     1      24.975 -24.772  89.454  1.00  0.00     0.027 A 
ATOM     17  C   UNL     1      24.062 -23.711  89.589  1.00  0.00     0.003 A 
ENDROOT
BRANCH   6  18
ATOM     18  C   UNL     1      18.070 -24.783  86.643  1.00  0.00     0.230 C 
ATOM     19  O   UNL     1      17.031 -24.111  86.597  1.00  0.00    -0.274 OA
ATOM     20  N   UNL     1      18.761 -25.091  85.470  1.00  0.00    -0.343 N 
BRANCH  20  21
ATOM     21  C   UNL     1      18.212 -24.563  84.216  1.00  0.00     0.116 C 
ATOM     22  C   UNL     1      17.014 -25.351  83.706  1.00  0.00     0.027 C 
ENDBRANCH  20  21
BRANCH  20  23
ATOM     23  C   UNL     1      20.018 -25.842  85.370  1.00  0.00     0.116 C 
ATOM     24  C   UNL     1      20.449 -26.114  83.938  1.00  0.00     0.027 C 
ENDBRANCH  20  23
ENDBRANCH   6  18
BRANCH   2  25
ATOM     25  C   UNL     1      26.424 -27.729  89.010  1.00  0.00     0.227 C 
ATOM     26  O   UNL     1      27.048 -27.729  90.067  1.00  0.00    -0.274 OA
ATOM     27  C   UNL     1      27.026 -28.135  87.707  1.00  0.00     0.115 C 
ENDBRANCH   2  25
TORSDOF 4
ENDMDL
MODEL 19
REMARK VINA RESULT:    -7.754      4.007      5.813
REMARK INTER + INTRA:          -9.763
REMARK INTER:                  -9.449
REMARK INTRA:                  -0.314
REMARK UNBOUND:                -0.196
REMARK SMILES CCN(CC)C(=O)[C@@H]1C=C2c3cccc4c3c(cn4C(C)=O)C[C@H]2N(C)C1
REMARK SMILES IDX 25 1 19 2 24 3 10 4 23 5 8 6 27 7 17 8 11 9 16 10 9 11 15 12
REMARK SMILES IDX 18 13 26 14 12 15 14 16 13 17 6 18 7 19 3 20 2 21 1 22 4 23
REMARK SMILES IDX 5 24 20 25 22 26 21 27
REMARK H PARENT
ROOT
ATOM      1  N   UNL     1      25.748 -24.697  88.484  1.00  0.00    -0.298 NA
ATOM      2  N   UNL     1      20.178 -25.230  86.092  1.00  0.00    -0.287 N 
ATOM      3  C   UNL     1      24.313 -24.581  88.124  1.00  0.00     0.091 C 
ATOM      4  C   UNL     1      23.382 -24.604  89.367  1.00  0.00    -0.026 C 
ATOM      5  C   UNL     1      23.794 -25.561  87.006  1.00  0.00     0.061 C 
ATOM      6  C   UNL     1      25.231 -25.420  90.806  1.00  0.00     0.116 C 
ATOM      7  C   UNL     1      26.001 -25.722  89.505  1.00  0.00     0.102 C 
ATOM      8  C   UNL     1      22.323 -25.369  86.808  1.00  0.00    -0.019 A 
ATOM      9  C   UNL     1      21.949 -24.356  89.100  1.00  0.00    -0.011 A 
ATOM     10  C   UNL     1      21.537 -24.791  87.826  1.00  0.00     0.011 A 
ATOM     11  C   UNL     1      23.815 -24.952  90.592  1.00  0.00    -0.007 C 
ATOM     12  C   UNL     1      20.215 -24.694  87.393  1.00  0.00     0.056 A 
ATOM     13  C   UNL     1      21.478 -25.635  85.764  1.00  0.00     0.099 A 
ATOM     14  C   UNL     1      26.638 -24.838  87.340  1.00  0.00     0.106 C 
ATOM     15  C   UNL     1      20.998 -23.804  89.954  1.00  0.00     0.009 A 
ATOM     16  C   UNL     1      19.260 -24.132  88.262  1.00  0.00     0.027 A 
ATOM     17  C   UNL     1      19.674 -23.692  89.533  1.00  0.00     0.003 A 
ENDROOT
BRANCH   6  18
ATOM     18  C   UNL     1      25.347 -26.599  91.790  1.00  0.00     0.230 C 
ATOM     19  O   UNL     1      24.531 -27.525  91.682  1.00  0.00    -0.274 OA
ATOM     20  N   UNL     1      26.309 -26.624  92.801  1.00  0.00    -0.343 N 
BRANCH  20  21
ATOM     21  C   UNL     1      26.312 -27.793  93.688  1.00  0.00     0.116 C 
ATOM     22  C   UNL     1      25.583 -27.552  95.002  1.00  0.00     0.027 C 
ENDBRANCH  20  21
BRANCH  20  23
ATOM     23  C   UNL     1      27.358 -25.623  93.031  1.00  0.00     0.116 C 
ATOM     24  C   UNL     1      28.674 -26.223  93.500  1.00  0.00     0.027 C 
ENDBRANCH  20  23
ENDBRANCH   6  18
BRANCH   2  25
ATOM     25  C   UNL     1      19.101 -25.383  85.189  1.00  0.00     0.227 C 
ATOM     26  O   UNL     1      19.340 -25.659  84.016  1.00  0.00    -0.274 OA
ATOM     27  C   UNL     1      17.719 -25.204  85.720  1.00  0.00     0.115 C 
ENDBRANCH   2  25
TORSDOF 4
ENDMDL
MODEL 20
REMARK VINA RESULT:    -7.748      4.600      7.176
REMARK INTER + INTRA:          -9.755
REMARK INTER:                  -9.489
REMARK INTRA:                  -0.266
REMARK UNBOUND:                -0.196
REMARK SMILES CCN(CC)C(=O)[C@@H]1C=C2c3cccc4c3c(cn4C(C)=O)C[C@H]2N(C)C1
REMARK SMILES IDX 25 1 19 2 24 3 10 4 23 5 8 6 27 7 17 8 11 9 16 10 9 11 15 12
REMARK SMILES IDX 18 13 26 14 12 15 14 16 13 17 6 18 7 19 3 20 2 21 1 22 4 23
REMARK SMILES IDX 5 24 20 25 22 26 21 27
REMARK H PARENT
ROOT
ATOM      1  N   UNL     1      24.626 -27.003  88.121  1.00  0.00    -0.298 NA
ATOM      2  N   UNL     1      19.179 -28.428  90.429  1.00  0.00    -0.287 N 
ATOM      3  C   UNL     1      23.196 -27.075  88.510  1.00  0.00     0.091 C 
ATOM      4  C   UNL     1      22.644 -25.714  89.015  1.00  0.00    -0.026 C 
ATOM      5  C   UNL     1      22.798 -28.247  89.484  1.00  0.00     0.061 C 
ATOM      6  C   UNL     1      24.942 -24.802  89.234  1.00  0.00     0.116 C 
ATOM      7  C   UNL     1      25.444 -26.252  89.083  1.00  0.00     0.102 C 
ATOM      8  C   UNL     1      21.346 -28.142  89.835  1.00  0.00    -0.019 A 
ATOM      9  C   UNL     1      21.194 -25.671  89.292  1.00  0.00    -0.011 A 
ATOM     10  C   UNL     1      20.671 -26.911  89.708  1.00  0.00     0.011 A 
ATOM     11  C   UNL     1      23.443 -24.671  89.309  1.00  0.00    -0.007 C 
ATOM     12  C   UNL     1      19.332 -27.077  90.065  1.00  0.00     0.056 A 
ATOM     13  C   UNL     1      20.425 -29.051  90.281  1.00  0.00     0.099 A 
ATOM     14  C   UNL     1      25.219 -28.292  87.793  1.00  0.00     0.106 C 
ATOM     15  C   UNL     1      20.338 -24.575  89.233  1.00  0.00     0.009 A 
ATOM     16  C   UNL     1      18.473 -25.964  89.998  1.00  0.00     0.027 A 
ATOM     17  C   UNL     1      18.996 -24.727  89.578  1.00  0.00     0.003 A 
ENDROOT
BRANCH   6  18
ATOM     18  C   UNL     1      25.679 -24.091  90.385  1.00  0.00     0.230 C 
ATOM     19  O   UNL     1      25.957 -22.893  90.240  1.00  0.00    -0.274 OA
ATOM     20  N   UNL     1      26.064 -24.768  91.543  1.00  0.00    -0.343 N 
BRANCH  20  21
ATOM     21  C   UNL     1      26.775 -23.990  92.564  1.00  0.00     0.116 C 
ATOM     22  C   UNL     1      28.052 -24.660  93.049  1.00  0.00     0.027 C 
ENDBRANCH  20  21
BRANCH  20  23
ATOM     23  C   UNL     1      25.777 -26.170  91.870  1.00  0.00     0.116 C 
ATOM     24  C   UNL     1      24.496 -26.356  92.667  1.00  0.00     0.027 C 
ENDBRANCH  20  23
ENDBRANCH   6  18
BRANCH   2  25
ATOM     25  C   UNL     1      18.041 -29.139  90.874  1.00  0.00     0.227 C 
ATOM     26  O   UNL     1      17.365 -29.757  90.056  1.00  0.00    -0.274 OA
ATOM     27  C   UNL     1      17.725 -29.101  92.331  1.00  0.00     0.115 C 
ENDBRANCH   2  25
TORSDOF 4
ENDMDL
