MODEL 1
REMARK VINA RESULT:    -8.794      0.000      0.000
REMARK INTER + INTRA:         -11.307
REMARK INTER:                 -10.850
REMARK INTRA:                  -0.457
REMARK UNBOUND:                -0.457
REMARK SMILES CCN(CC)C(=O)[C@@H]1C=C2c3cccc4c3c(cn4C(C)=O)C[C@H]2N(C)C1
REMARK SMILES IDX 25 1 19 2 24 3 10 4 23 5 8 6 27 7 17 8 11 9 16 10 9 11 15 12
REMARK SMILES IDX 18 13 26 14 12 15 14 16 13 17 6 18 7 19 3 20 2 21 1 22 4 23
REMARK SMILES IDX 5 24 20 25 22 26 21 27
REMARK H PARENT
ROOT
ATOM      1  N   UNL     1      96.956 106.012  94.682  1.00  0.00    -0.298 NA
ATOM      2  N   UNL     1      97.326 110.882  98.312  1.00  0.00    -0.287 N 
ATOM      3  C   UNL     1      96.732 107.261  95.451  1.00  0.00     0.091 C 
ATOM      4  C   UNL     1      96.197 108.420  94.565  1.00  0.00    -0.026 C 
ATOM      5  C   UNL     1      97.925 107.744  96.359  1.00  0.00     0.061 C 
ATOM      6  C   UNL     1      96.788 107.185  92.496  1.00  0.00     0.116 C 
ATOM      7  C   UNL     1      97.619 106.245  93.392  1.00  0.00     0.102 C 
ATOM      8  C   UNL     1      97.571 109.045  97.009  1.00  0.00    -0.019 A 
ATOM      9  C   UNL     1      95.820 109.655  95.283  1.00  0.00    -0.011 A 
ATOM     10  C   UNL     1      96.574 109.871  96.453  1.00  0.00     0.011 A 
ATOM     11  C   UNL     1      96.192 108.363  93.221  1.00  0.00    -0.007 C 
ATOM     12  C   UNL     1      96.409 111.003  97.251  1.00  0.00     0.056 A 
ATOM     13  C   UNL     1      98.022 109.679  98.135  1.00  0.00     0.099 A 
ATOM     14  C   UNL     1      97.605 104.954  95.443  1.00  0.00     0.106 C 
ATOM     15  C   UNL     1      94.873 110.608  94.917  1.00  0.00     0.009 A 
ATOM     16  C   UNL     1      95.447 111.960  96.875  1.00  0.00     0.027 A 
ATOM     17  C   UNL     1      94.691 111.741  95.710  1.00  0.00     0.003 A 
ENDROOT
BRANCH   6  18
ATOM     18  C   UNL     1      97.584 107.576  91.236  1.00  0.00     0.230 C 
ATOM     19  O   UNL     1      97.930 108.759  91.116  1.00  0.00    -0.274 OA
ATOM     20  N   UNL     1      97.883 106.650  90.236  1.00  0.00    -0.343 N 
BRANCH  20  21
ATOM     21  C   UNL     1      98.633 107.142  89.076  1.00  0.00     0.116 C 
ATOM     22  C   UNL     1      99.442 106.058  88.378  1.00  0.00     0.027 C 
ENDBRANCH  20  21
BRANCH  20  23
ATOM     23  C   UNL     1      97.572 105.215  90.255  1.00  0.00     0.116 C 
ATOM     24  C   UNL     1      96.227 104.878  89.632  1.00  0.00     0.027 C 
ENDBRANCH  20  23
ENDBRANCH   6  18
BRANCH   2  25
ATOM     25  C   UNL     1      97.589 111.739  99.406  1.00  0.00     0.227 C 
ATOM     26  O   UNL     1      96.926 111.619 100.432  1.00  0.00    -0.274 OA
ATOM     27  C   UNL     1      98.674 112.750  99.249  1.00  0.00     0.115 C 
ENDBRANCH   2  25
TORSDOF 4
ENDMDL
MODEL 2
REMARK VINA RESULT:    -8.211      4.643      7.870
REMARK INTER + INTRA:         -10.588
REMARK INTER:                 -10.124
REMARK INTRA:                  -0.464
REMARK UNBOUND:                -0.457
REMARK SMILES CCN(CC)C(=O)[C@@H]1C=C2c3cccc4c3c(cn4C(C)=O)C[C@H]2N(C)C1
REMARK SMILES IDX 25 1 19 2 24 3 10 4 23 5 8 6 27 7 17 8 11 9 16 10 9 11 15 12
REMARK SMILES IDX 18 13 26 14 12 15 14 16 13 17 6 18 7 19 3 20 2 21 1 22 4 23
REMARK SMILES IDX 5 24 20 25 22 26 21 27
REMARK H PARENT
ROOT
ATOM      1  N   UNL     1     101.316 106.474  97.722  1.00  0.00    -0.298 NA
ATOM      2  N   UNL     1      96.237 108.372  94.958  1.00  0.00    -0.287 N 
ATOM      3  C   UNL     1     100.033 107.112  97.336  1.00  0.00     0.091 C 
ATOM      4  C   UNL     1      98.945 106.978  98.437  1.00  0.00    -0.026 C 
ATOM      5  C   UNL     1      99.461 106.727  95.921  1.00  0.00     0.061 C 
ATOM      6  C   UNL     1     100.276 105.249  99.619  1.00  0.00     0.116 C 
ATOM      7  C   UNL     1     101.136 105.155  98.343  1.00  0.00     0.102 C 
ATOM      8  C   UNL     1      98.137 107.394  95.712  1.00  0.00    -0.019 A 
ATOM      9  C   UNL     1      97.684 107.705  98.186  1.00  0.00    -0.011 A 
ATOM     10  C   UNL     1      97.377 107.829  96.816  1.00  0.00     0.011 A 
ATOM     11  C   UNL     1      99.078 106.154  99.493  1.00  0.00    -0.007 C 
ATOM     12  C   UNL     1      96.207 108.440  96.364  1.00  0.00     0.056 A 
ATOM     13  C   UNL     1      97.425 107.726  94.591  1.00  0.00     0.099 A 
ATOM     14  C   UNL     1     102.307 106.442  96.655  1.00  0.00     0.106 C 
ATOM     15  C   UNL     1      96.785 108.217  99.117  1.00  0.00     0.009 A 
ATOM     16  C   UNL     1      95.305 108.957  97.313  1.00  0.00     0.027 A 
ATOM     17  C   UNL     1      95.615 108.837  98.680  1.00  0.00     0.003 A 
ENDROOT
BRANCH   6  18
ATOM     18  C   UNL     1      99.932 103.843 100.145  1.00  0.00     0.230 C 
ATOM     19  O   UNL     1      99.327 103.074  99.384  1.00  0.00    -0.274 OA
ATOM     20  N   UNL     1     100.249 103.443 101.443  1.00  0.00    -0.343 N 
BRANCH  20  21
ATOM     21  C   UNL     1      99.857 102.085 101.836  1.00  0.00     0.116 C 
ATOM     22  C   UNL     1     100.262 101.731 103.260  1.00  0.00     0.027 C 
ENDBRANCH  20  21
BRANCH  20  23
ATOM     23  C   UNL     1     100.990 104.226 102.440  1.00  0.00     0.116 C 
ATOM     24  C   UNL     1     100.221 105.431 102.958  1.00  0.00     0.027 C 
ENDBRANCH  20  23
ENDBRANCH   6  18
BRANCH   2  25
ATOM     25  C   UNL     1      95.311 108.830  93.993  1.00  0.00     0.227 C 
ATOM     26  O   UNL     1      94.701 109.875  94.199  1.00  0.00    -0.274 OA
ATOM     27  C   UNL     1      95.130 108.008  92.761  1.00  0.00     0.115 C 
ENDBRANCH   2  25
TORSDOF 4
ENDMDL
MODEL 3
REMARK VINA RESULT:    -8.210      2.256      2.920
REMARK INTER + INTRA:         -10.587
REMARK INTER:                  -9.908
REMARK INTRA:                  -0.679
REMARK UNBOUND:                -0.457
REMARK SMILES CCN(CC)C(=O)[C@@H]1C=C2c3cccc4c3c(cn4C(C)=O)C[C@H]2N(C)C1
REMARK SMILES IDX 25 1 19 2 24 3 10 4 23 5 8 6 27 7 17 8 11 9 16 10 9 11 15 12
REMARK SMILES IDX 18 13 26 14 12 15 14 16 13 17 6 18 7 19 3 20 2 21 1 22 4 23
REMARK SMILES IDX 5 24 20 25 22 26 21 27
REMARK H PARENT
ROOT
ATOM      1  N   UNL     1      95.659 108.202  96.487  1.00  0.00    -0.298 NA
ATOM      2  N   UNL     1      99.486 112.607  98.213  1.00  0.00    -0.287 N 
ATOM      3  C   UNL     1      96.424 109.460  96.675  1.00  0.00     0.091 C 
ATOM      4  C   UNL     1      96.912 110.068  95.332  1.00  0.00    -0.026 C 
ATOM      5  C   UNL     1      97.587 109.415  97.735  1.00  0.00     0.061 C 
ATOM      6  C   UNL     1      96.406 107.957  94.129  1.00  0.00     0.116 C 
ATOM      7  C   UNL     1      96.279 107.294  95.515  1.00  0.00     0.102 C 
ATOM      8  C   UNL     1      98.303 110.730  97.756  1.00  0.00    -0.019 A 
ATOM      9  C   UNL     1      97.563 111.391  95.425  1.00  0.00    -0.011 A 
ATOM     10  C   UNL     1      98.233 111.596  96.647  1.00  0.00     0.011 A 
ATOM     11  C   UNL     1      96.867 109.391  94.170  1.00  0.00    -0.007 C 
ATOM     12  C   UNL     1      98.953 112.759  96.920  1.00  0.00     0.056 A 
ATOM     13  C   UNL     1      99.074 111.358  98.697  1.00  0.00     0.099 A 
ATOM     14  C   UNL     1      95.321 107.521  97.729  1.00  0.00     0.106 C 
ATOM     15  C   UNL     1      97.621 112.392  94.459  1.00  0.00     0.009 A 
ATOM     16  C   UNL     1      99.003 113.768  95.938  1.00  0.00     0.027 A 
ATOM     17  C   UNL     1      98.329 113.564  94.720  1.00  0.00     0.003 A 
ENDROOT
BRANCH   6  18
ATOM     18  C   UNL     1      97.234 107.071  93.178  1.00  0.00     0.230 C 
ATOM     19  O   UNL     1      98.310 106.623  93.597  1.00  0.00    -0.274 OA
ATOM     20  N   UNL     1      96.820 106.803  91.873  1.00  0.00    -0.343 N 
BRANCH  20  21
ATOM     21  C   UNL     1      97.699 105.960  91.056  1.00  0.00     0.116 C 
ATOM     22  C   UNL     1      96.947 104.911  90.250  1.00  0.00     0.027 C 
ENDBRANCH  20  21
BRANCH  20  23
ATOM     23  C   UNL     1      95.561 107.233  91.252  1.00  0.00     0.116 C 
ATOM     24  C   UNL     1      95.743 108.322  90.207  1.00  0.00     0.027 C 
ENDBRANCH  20  23
ENDBRANCH   6  18
BRANCH   2  25
ATOM     25  C   UNL     1     100.293 113.473  98.986  1.00  0.00     0.227 C 
ATOM     26  O   UNL     1      99.915 113.802 100.106  1.00  0.00    -0.274 OA
ATOM     27  C   UNL     1     101.578 113.940  98.388  1.00  0.00     0.115 C 
ENDBRANCH   2  25
TORSDOF 4
ENDMDL
MODEL 4
REMARK VINA RESULT:    -8.113      3.894      7.369
REMARK INTER + INTRA:         -10.468
REMARK INTER:                  -9.936
REMARK INTRA:                  -0.532
REMARK UNBOUND:                -0.457
REMARK SMILES CCN(CC)C(=O)[C@@H]1C=C2c3cccc4c3c(cn4C(C)=O)C[C@H]2N(C)C1
REMARK SMILES IDX 25 1 19 2 24 3 10 4 23 5 8 6 27 7 17 8 11 9 16 10 9 11 15 12
REMARK SMILES IDX 18 13 26 14 12 15 14 16 13 17 6 18 7 19 3 20 2 21 1 22 4 23
REMARK SMILES IDX 5 24 20 25 22 26 21 27
REMARK H PARENT
ROOT
ATOM      1  N   UNL     1      99.843 109.242  97.760  1.00  0.00    -0.298 NA
ATOM      2  N   UNL     1      99.543 103.359  99.287  1.00  0.00    -0.287 N 
ATOM      3  C   UNL     1      99.813 107.758  97.798  1.00  0.00     0.091 C 
ATOM      4  C   UNL     1      98.854 107.153  96.737  1.00  0.00    -0.026 C 
ATOM      5  C   UNL     1      99.585 107.103  99.211  1.00  0.00     0.061 C 
ATOM      6  C   UNL     1      97.804 109.367  96.343  1.00  0.00     0.116 C 
ATOM      7  C   UNL     1      98.507 109.838  97.632  1.00  0.00     0.102 C 
ATOM      8  C   UNL     1      99.511 105.614  99.071  1.00  0.00    -0.019 A 
ATOM      9  C   UNL     1      98.872 105.680  96.620  1.00  0.00    -0.011 A 
ATOM     10  C   UNL     1      99.184 105.031  97.831  1.00  0.00     0.011 A 
ATOM     11  C   UNL     1      97.966 107.898  96.052  1.00  0.00    -0.007 C 
ATOM     12  C   UNL     1      99.207 103.641  97.950  1.00  0.00     0.056 A 
ATOM     13  C   UNL     1      99.719 104.582  99.947  1.00  0.00     0.099 A 
ATOM     14  C   UNL     1     100.608 109.848  98.841  1.00  0.00     0.106 C 
ATOM     15  C   UNL     1      98.583 104.902  95.503  1.00  0.00     0.009 A 
ATOM     16  C   UNL     1      98.916 102.861  96.814  1.00  0.00     0.027 A 
ATOM     17  C   UNL     1      98.611 103.512  95.604  1.00  0.00     0.003 A 
ENDROOT
BRANCH   6  18
ATOM     18  C   UNL     1      96.338 109.840  96.323  1.00  0.00     0.230 C 
ATOM     19  O   UNL     1      95.486 109.104  96.840  1.00  0.00    -0.274 OA
ATOM     20  N   UNL     1      95.958 111.036  95.713  1.00  0.00    -0.343 N 
BRANCH  20  21
ATOM     21  C   UNL     1      94.530 111.374  95.743  1.00  0.00     0.116 C 
ATOM     22  C   UNL     1      94.141 112.431  94.719  1.00  0.00     0.027 C 
ENDBRANCH  20  21
BRANCH  20  23
ATOM     23  C   UNL     1      96.852 112.022  95.094  1.00  0.00     0.116 C 
ATOM     24  C   UNL     1      97.423 113.026  96.082  1.00  0.00     0.027 C 
ENDBRANCH  20  23
ENDBRANCH   6  18
BRANCH   2  25
ATOM     25  C   UNL     1      99.703 102.124  99.956  1.00  0.00     0.227 C 
ATOM     26  O   UNL     1     100.101 101.149  99.325  1.00  0.00    -0.274 OA
ATOM     27  C   UNL     1      99.381 102.077 101.412  1.00  0.00     0.115 C 
ENDBRANCH   2  25
TORSDOF 4
ENDMDL
MODEL 5
REMARK VINA RESULT:    -8.109      5.255      6.623
REMARK INTER + INTRA:         -10.462
REMARK INTER:                  -9.818
REMARK INTRA:                  -0.644
REMARK UNBOUND:                -0.457
REMARK SMILES CCN(CC)C(=O)[C@@H]1C=C2c3cccc4c3c(cn4C(C)=O)C[C@H]2N(C)C1
REMARK SMILES IDX 25 1 19 2 24 3 10 4 23 5 8 6 27 7 17 8 11 9 16 10 9 11 15 12
REMARK SMILES IDX 18 13 26 14 12 15 14 16 13 17 6 18 7 19 3 20 2 21 1 22 4 23
REMARK SMILES IDX 5 24 20 25 22 26 21 27
REMARK H PARENT
ROOT
ATOM      1  N   UNL     1     100.082 110.097  99.208  1.00  0.00    -0.298 NA
ATOM      2  N   UNL     1      95.229 111.772  95.943  1.00  0.00    -0.287 N 
ATOM      3  C   UNL     1      98.725 110.378  98.677  1.00  0.00     0.091 C 
ATOM      4  C   UNL     1      97.784 109.145  98.761  1.00  0.00    -0.026 C 
ATOM      5  C   UNL     1      98.661 111.046  97.252  1.00  0.00     0.061 C 
ATOM      6  C   UNL     1      99.704 107.640  99.209  1.00  0.00     0.116 C 
ATOM      7  C   UNL     1     100.615 108.802  98.765  1.00  0.00     0.102 C 
ATOM      8  C   UNL     1      97.233 111.199  96.830  1.00  0.00    -0.019 A 
ATOM      9  C   UNL     1      96.377 109.384  98.378  1.00  0.00    -0.011 A 
ATOM     10  C   UNL     1      96.229 110.396  97.409  1.00  0.00     0.011 A 
ATOM     11  C   UNL     1      98.232 107.908  99.040  1.00  0.00    -0.007 C 
ATOM     12  C   UNL     1      94.989 110.746  96.875  1.00  0.00     0.056 A 
ATOM     13  C   UNL     1      96.607 112.025  95.936  1.00  0.00     0.099 A 
ATOM     14  C   UNL     1     101.037 111.177  99.001  1.00  0.00     0.106 C 
ATOM     15  C   UNL     1      95.239 108.715  98.819  1.00  0.00     0.009 A 
ATOM     16  C   UNL     1      93.843 110.065  97.329  1.00  0.00     0.027 A 
ATOM     17  C   UNL     1      93.991 109.059  98.300  1.00  0.00     0.003 A 
ENDROOT
BRANCH   6  18
ATOM     18  C   UNL     1     100.166 106.316  98.571  1.00  0.00     0.230 C 
ATOM     19  O   UNL     1     100.227 106.261  97.335  1.00  0.00    -0.274 OA
ATOM     20  N   UNL     1     100.473 105.194  99.341  1.00  0.00    -0.343 N 
BRANCH  20  21
ATOM     21  C   UNL     1     100.887 103.985  98.620  1.00  0.00     0.116 C 
ATOM     22  C   UNL     1      99.746 103.005  98.386  1.00  0.00     0.027 C 
ENDBRANCH  20  21
BRANCH  20  23
ATOM     23  C   UNL     1     100.481 105.118 100.807  1.00  0.00     0.116 C 
ATOM     24  C   UNL     1      99.111 104.846 101.407  1.00  0.00     0.027 C 
ENDBRANCH  20  23
ENDBRANCH   6  18
BRANCH   2  25
ATOM     25  C   UNL     1      94.337 112.491  95.113  1.00  0.00     0.227 C 
ATOM     26  O   UNL     1      93.413 111.893  94.570  1.00  0.00    -0.274 OA
ATOM     27  C   UNL     1      94.572 113.955  94.948  1.00  0.00     0.115 C 
ENDBRANCH   2  25
TORSDOF 4
ENDMDL
MODEL 6
REMARK VINA RESULT:    -8.052      3.803      7.329
REMARK INTER + INTRA:         -10.392
REMARK INTER:                  -9.625
REMARK INTRA:                  -0.766
REMARK UNBOUND:                -0.457
REMARK SMILES CCN(CC)C(=O)[C@@H]1C=C2c3cccc4c3c(cn4C(C)=O)C[C@H]2N(C)C1
REMARK SMILES IDX 25 1 19 2 24 3 10 4 23 5 8 6 27 7 17 8 11 9 16 10 9 11 15 12
REMARK SMILES IDX 18 13 26 14 12 15 14 16 13 17 6 18 7 19 3 20 2 21 1 22 4 23
REMARK SMILES IDX 5 24 20 25 22 26 21 27
REMARK H PARENT
ROOT
ATOM      1  N   UNL     1      95.897 109.422  98.016  1.00  0.00    -0.298 NA
ATOM      2  N   UNL     1      98.341 104.149  96.212  1.00  0.00    -0.287 N 
ATOM      3  C   UNL     1      96.757 108.239  97.765  1.00  0.00     0.091 C 
ATOM      4  C   UNL     1      98.201 108.629  97.347  1.00  0.00    -0.026 C 
ATOM      5  C   UNL     1      96.165 107.138  96.807  1.00  0.00     0.061 C 
ATOM      6  C   UNL     1      97.506 110.973  96.928  1.00  0.00     0.116 C 
ATOM      7  C   UNL     1      96.051 110.468  96.997  1.00  0.00     0.102 C 
ATOM      8  C   UNL     1      97.174 106.052  96.601  1.00  0.00    -0.019 A 
ATOM      9  C   UNL     1      99.155 107.508  97.212  1.00  0.00    -0.011 A 
ATOM     10  C   UNL     1      98.544 106.301  96.821  1.00  0.00     0.011 A 
ATOM     11  C   UNL     1      98.544 109.883  97.002  1.00  0.00    -0.007 C 
ATOM     12  C   UNL     1      99.272 105.134  96.592  1.00  0.00     0.056 A 
ATOM     13  C   UNL     1      97.070 104.739  96.225  1.00  0.00     0.099 A 
ATOM     14  C   UNL     1      94.497 109.098  98.256  1.00  0.00     0.106 C 
ATOM     15  C   UNL     1     100.537 107.530  97.380  1.00  0.00     0.009 A 
ATOM     16  C   UNL     1     100.669 105.164  96.766  1.00  0.00     0.027 A 
ATOM     17  C   UNL     1     101.277 106.369  97.162  1.00  0.00     0.003 A 
ENDROOT
BRANCH   6  18
ATOM     18  C   UNL     1      97.694 111.921  95.728  1.00  0.00     0.230 C 
ATOM     19  O   UNL     1      97.036 111.693  94.704  1.00  0.00    -0.274 OA
ATOM     20  N   UNL     1      98.598 112.983  95.762  1.00  0.00    -0.343 N 
BRANCH  20  21
ATOM     21  C   UNL     1      98.701 113.808  94.553  1.00  0.00     0.116 C 
ATOM     22  C   UNL     1      98.121 115.204  94.727  1.00  0.00     0.027 C 
ENDBRANCH  20  21
BRANCH  20  23
ATOM     23  C   UNL     1      99.416 113.396  96.909  1.00  0.00     0.116 C 
ATOM     24  C   UNL     1     100.805 112.777  96.917  1.00  0.00     0.027 C 
ENDBRANCH  20  23
ENDBRANCH   6  18
BRANCH   2  25
ATOM     25  C   UNL     1      98.526 102.791  95.864  1.00  0.00     0.227 C 
ATOM     26  O   UNL     1      98.572 101.946  96.753  1.00  0.00    -0.274 OA
ATOM     27  C   UNL     1      98.651 102.459  94.415  1.00  0.00     0.115 C 
ENDBRANCH   2  25
TORSDOF 4
ENDMDL
MODEL 7
REMARK VINA RESULT:    -7.963      3.804      5.339
REMARK INTER + INTRA:         -10.282
REMARK INTER:                  -9.635
REMARK INTRA:                  -0.647
REMARK UNBOUND:                -0.457
REMARK SMILES CCN(CC)C(=O)[C@@H]1C=C2c3cccc4c3c(cn4C(C)=O)C[C@H]2N(C)C1
REMARK SMILES IDX 25 1 19 2 24 3 10 4 23 5 8 6 27 7 17 8 11 9 16 10 9 11 15 12
REMARK SMILES IDX 18 13 26 14 12 15 14 16 13 17 6 18 7 19 3 20 2 21 1 22 4 23
REMARK SMILES IDX 5 24 20 25 22 26 21 27
REMARK H PARENT
ROOT
ATOM      1  N   UNL     1      97.064 108.484  96.151  1.00  0.00    -0.298 NA
ATOM      2  N   UNL     1     100.355 105.700 100.446  1.00  0.00    -0.287 N 
ATOM      3  C   UNL     1      98.129 107.946  97.033  1.00  0.00     0.091 C 
ATOM      4  C   UNL     1      99.286 107.283  96.236  1.00  0.00    -0.026 C 
ATOM      5  C   UNL     1      97.653 107.024  98.217  1.00  0.00     0.061 C 
ATOM      6  C   UNL     1      97.916 107.252  94.167  1.00  0.00     0.116 C 
ATOM      7  C   UNL     1      96.702 107.566  95.064  1.00  0.00     0.102 C 
ATOM      8  C   UNL     1      98.842 106.508  98.966  1.00  0.00    -0.019 A 
ATOM      9  C   UNL     1     100.448 106.844  97.036  1.00  0.00    -0.011 A 
ATOM     10  C   UNL     1     100.109 106.467  98.350  1.00  0.00     0.011 A 
ATOM     11  C   UNL     1      99.195 107.003  94.923  1.00  0.00    -0.007 C 
ATOM     12  C   UNL     1     101.050 105.978  99.255  1.00  0.00     0.056 A 
ATOM     13  C   UNL     1      99.009 106.031 100.238  1.00  0.00     0.099 A 
ATOM     14  C   UNL     1      95.892 108.971  96.865  1.00  0.00     0.106 C 
ATOM     15  C   UNL     1     101.776 106.727  96.633  1.00  0.00     0.009 A 
ATOM     16  C   UNL     1     102.391 105.865  98.839  1.00  0.00     0.027 A 
ATOM     17  C   UNL     1     102.730 106.248  97.529  1.00  0.00     0.003 A 
ENDROOT
BRANCH   6  18
ATOM     18  C   UNL     1      97.571 106.140  93.158  1.00  0.00     0.230 C 
ATOM     19  O   UNL     1      97.468 104.983  93.587  1.00  0.00    -0.274 OA
ATOM     20  N   UNL     1      97.414 106.403  91.797  1.00  0.00    -0.343 N 
BRANCH  20  21
ATOM     21  C   UNL     1      97.102 105.261  90.930  1.00  0.00     0.116 C 
ATOM     22  C   UNL     1      97.871 105.275  89.617  1.00  0.00     0.027 C 
ENDBRANCH  20  21
BRANCH  20  23
ATOM     23  C   UNL     1      97.472 107.720  91.150  1.00  0.00     0.116 C 
ATOM     24  C   UNL     1      96.119 108.217  90.666  1.00  0.00     0.027 C 
ENDBRANCH  20  23
ENDBRANCH   6  18
BRANCH   2  25
ATOM     25  C   UNL     1     100.811 105.186 101.682  1.00  0.00     0.227 C 
ATOM     26  O   UNL     1     101.014 103.980 101.790  1.00  0.00    -0.274 OA
ATOM     27  C   UNL     1     101.028 106.154 102.797  1.00  0.00     0.115 C 
ENDBRANCH   2  25
TORSDOF 4
ENDMDL
MODEL 8
REMARK VINA RESULT:    -7.884      3.907      6.316
REMARK INTER + INTRA:         -10.184
REMARK INTER:                  -9.698
REMARK INTRA:                  -0.486
REMARK UNBOUND:                -0.457
REMARK SMILES CCN(CC)C(=O)[C@@H]1C=C2c3cccc4c3c(cn4C(C)=O)C[C@H]2N(C)C1
REMARK SMILES IDX 25 1 19 2 24 3 10 4 23 5 8 6 27 7 17 8 11 9 16 10 9 11 15 12
REMARK SMILES IDX 18 13 26 14 12 15 14 16 13 17 6 18 7 19 3 20 2 21 1 22 4 23
REMARK SMILES IDX 5 24 20 25 22 26 21 27
REMARK H PARENT
ROOT
ATOM      1  N   UNL     1      99.251 109.209  97.184  1.00  0.00    -0.298 NA
ATOM      2  N   UNL     1      99.549 104.225 100.661  1.00  0.00    -0.287 N 
ATOM      3  C   UNL     1      99.499 107.868  97.768  1.00  0.00     0.091 C 
ATOM      4  C   UNL     1      99.150 106.716  96.787  1.00  0.00    -0.026 C 
ATOM      5  C   UNL     1      98.887 107.606  99.195  1.00  0.00     0.061 C 
ATOM      6  C   UNL     1      97.917 108.278  95.305  1.00  0.00     0.116 C 
ATOM      7  C   UNL     1      97.974 109.294  96.464  1.00  0.00     0.102 C 
ATOM      8  C   UNL     1      99.162 106.195  99.612  1.00  0.00    -0.019 A 
ATOM      9  C   UNL     1      99.497 105.355  97.245  1.00  0.00    -0.011 A 
ATOM     10  C   UNL     1      99.448 105.210  98.645  1.00  0.00     0.011 A 
ATOM     11  C   UNL     1      98.460 106.916  95.649  1.00  0.00    -0.007 C 
ATOM     12  C   UNL     1      99.696 103.993  99.281  1.00  0.00     0.056 A 
ATOM     13  C   UNL     1      99.221 105.576 100.832  1.00  0.00     0.099 A 
ATOM     14  C   UNL     1      99.417 110.308  98.127  1.00  0.00     0.106 C 
ATOM     15  C   UNL     1      99.809 104.240  96.472  1.00  0.00     0.009 A 
ATOM     16  C   UNL     1     100.013 102.871  98.491  1.00  0.00     0.027 A 
ATOM     17  C   UNL     1     100.067 103.019  97.093  1.00  0.00     0.003 A 
ENDROOT
BRANCH   6  18
ATOM     18  C   UNL     1      96.506 108.240  94.689  1.00  0.00     0.230 C 
ATOM     19  O   UNL     1      95.537 108.255  95.461  1.00  0.00    -0.274 OA
ATOM     20  N   UNL     1      96.305 108.152  93.310  1.00  0.00    -0.343 N 
BRANCH  20  21
ATOM     21  C   UNL     1      94.916 108.107  92.841  1.00  0.00     0.116 C 
ATOM     22  C   UNL     1      94.710 107.166  91.663  1.00  0.00     0.027 C 
ENDBRANCH  20  21
BRANCH  20  23
ATOM     23  C   UNL     1      97.347 108.160  92.275  1.00  0.00     0.116 C 
ATOM     24  C   UNL     1      97.946 106.788  92.009  1.00  0.00     0.027 C 
ENDBRANCH  20  23
ENDBRANCH   6  18
BRANCH   2  25
ATOM     25  C   UNL     1      99.682 103.348 101.762  1.00  0.00     0.227 C 
ATOM     26  O   UNL     1     100.533 103.584 102.615  1.00  0.00    -0.274 OA
ATOM     27  C   UNL     1      98.765 102.173 101.828  1.00  0.00     0.115 C 
ENDBRANCH   2  25
TORSDOF 4
ENDMDL
MODEL 9
REMARK VINA RESULT:    -7.790      5.284      7.153
REMARK INTER + INTRA:         -10.069
REMARK INTER:                  -9.375
REMARK INTRA:                  -0.693
REMARK UNBOUND:                -0.457
REMARK SMILES CCN(CC)C(=O)[C@@H]1C=C2c3cccc4c3c(cn4C(C)=O)C[C@H]2N(C)C1
REMARK SMILES IDX 25 1 19 2 24 3 10 4 23 5 8 6 27 7 17 8 11 9 16 10 9 11 15 12
REMARK SMILES IDX 18 13 26 14 12 15 14 16 13 17 6 18 7 19 3 20 2 21 1 22 4 23
REMARK SMILES IDX 5 24 20 25 22 26 21 27
REMARK H PARENT
ROOT
ATOM      1  N   UNL     1      94.939 110.532  98.210  1.00  0.00    -0.298 NA
ATOM      2  N   UNL     1     100.502 108.216  99.062  1.00  0.00    -0.287 N 
ATOM      3  C   UNL     1      96.336 110.240  98.618  1.00  0.00     0.091 C 
ATOM      4  C   UNL     1      97.272 111.470  98.464  1.00  0.00    -0.026 C 
ATOM      5  C   UNL     1      96.987 108.948  97.996  1.00  0.00     0.061 C 
ATOM      6  C   UNL     1      95.583 112.652  97.082  1.00  0.00     0.116 C 
ATOM      7  C   UNL     1      94.856 111.298  96.960  1.00  0.00     0.102 C 
ATOM      8  C   UNL     1      98.410 108.832  98.447  1.00  0.00    -0.019 A 
ATOM      9  C   UNL     1      98.647 111.299  98.977  1.00  0.00    -0.011 A 
ATOM     10  C   UNL     1      99.108 109.970  98.899  1.00  0.00     0.011 A 
ATOM     11  C   UNL     1      96.909 112.579  97.794  1.00  0.00    -0.007 C 
ATOM     12  C   UNL     1     100.396 109.601  99.288  1.00  0.00     0.056 A 
ATOM     13  C   UNL     1      99.275 107.776  98.547  1.00  0.00     0.099 A 
ATOM     14  C   UNL     1      94.070 109.364  98.191  1.00  0.00     0.106 C 
ATOM     15  C   UNL     1      99.511 112.275  99.466  1.00  0.00     0.009 A 
ATOM     16  C   UNL     1     101.263 110.595  99.783  1.00  0.00     0.027 A 
ATOM     17  C   UNL     1     100.799 111.920  99.865  1.00  0.00     0.003 A 
ENDROOT
BRANCH   6  18
ATOM     18  C   UNL     1      95.658 113.352  95.712  1.00  0.00     0.230 C 
ATOM     19  O   UNL     1      96.379 112.844  94.843  1.00  0.00    -0.274 OA
ATOM     20  N   UNL     1      94.974 114.540  95.453  1.00  0.00    -0.343 N 
BRANCH  20  21
ATOM     21  C   UNL     1      95.134 115.123  94.116  1.00  0.00     0.116 C 
ATOM     22  C   UNL     1      96.122 116.280  94.079  1.00  0.00     0.027 C 
ENDBRANCH  20  21
BRANCH  20  23
ATOM     23  C   UNL     1      94.060 115.237  96.367  1.00  0.00     0.116 C 
ATOM     24  C   UNL     1      92.687 115.499  95.767  1.00  0.00     0.027 C 
ENDBRANCH  20  23
ENDBRANCH   6  18
BRANCH   2  25
ATOM     25  C   UNL     1     101.580 107.327  99.275  1.00  0.00     0.227 C 
ATOM     26  O   UNL     1     102.613 107.473  98.627  1.00  0.00    -0.274 OA
ATOM     27  C   UNL     1     101.400 106.250 100.291  1.00  0.00     0.115 C 
ENDBRANCH   2  25
TORSDOF 4
ENDMDL
MODEL 10
REMARK VINA RESULT:    -7.750      3.357      5.988
REMARK INTER + INTRA:         -10.019
REMARK INTER:                  -9.299
REMARK INTRA:                  -0.721
REMARK UNBOUND:                -0.457
REMARK SMILES CCN(CC)C(=O)[C@@H]1C=C2c3cccc4c3c(cn4C(C)=O)C[C@H]2N(C)C1
REMARK SMILES IDX 25 1 19 2 24 3 10 4 23 5 8 6 27 7 17 8 11 9 16 10 9 11 15 12
REMARK SMILES IDX 18 13 26 14 12 15 14 16 13 17 6 18 7 19 3 20 2 21 1 22 4 23
REMARK SMILES IDX 5 24 20 25 22 26 21 27
REMARK H PARENT
ROOT
ATOM      1  N   UNL     1      96.686 108.312  94.399  1.00  0.00    -0.298 NA
ATOM      2  N   UNL     1      94.284 113.858  95.108  1.00  0.00    -0.287 N 
ATOM      3  C   UNL     1      96.424 109.767  94.536  1.00  0.00     0.091 C 
ATOM      4  C   UNL     1      97.381 110.453  95.549  1.00  0.00    -0.026 C 
ATOM      5  C   UNL     1      94.927 110.182  94.794  1.00  0.00     0.061 C 
ATOM      6  C   UNL     1      98.105 108.254  96.440  1.00  0.00     0.116 C 
ATOM      7  C   UNL     1      96.903 107.646  95.689  1.00  0.00     0.102 C 
ATOM      8  C   UNL     1      94.840 111.666  94.978  1.00  0.00    -0.019 A 
ATOM      9  C   UNL     1      97.272 111.924  95.639  1.00  0.00    -0.011 A 
ATOM     10  C   UNL     1      95.977 112.404  95.361  1.00  0.00     0.011 A 
ATOM     11  C   UNL     1      98.170 109.758  96.388  1.00  0.00    -0.007 C 
ATOM     12  C   UNL     1      95.649 113.758  95.437  1.00  0.00     0.056 A 
ATOM     13  C   UNL     1      93.818 112.565  94.835  1.00  0.00     0.099 A 
ATOM     14  C   UNL     1      95.711 107.607  93.580  1.00  0.00     0.106 C 
ATOM     15  C   UNL     1      98.258 112.839  95.997  1.00  0.00     0.009 A 
ATOM     16  C   UNL     1      96.653 114.677  95.797  1.00  0.00     0.027 A 
ATOM     17  C   UNL     1      97.947 114.196  96.068  1.00  0.00     0.003 A 
ENDROOT
BRANCH   6  18
ATOM     18  C   UNL     1      98.197 107.683  97.867  1.00  0.00     0.230 C 
ATOM     19  O   UNL     1      97.438 108.152  98.727  1.00  0.00    -0.274 OA
ATOM     20  N   UNL     1      99.124 106.698  98.209  1.00  0.00    -0.343 N 
BRANCH  20  21
ATOM     21  C   UNL     1      99.128 106.243  99.604  1.00  0.00     0.116 C 
ATOM     22  C   UNL     1      99.521 104.781  99.758  1.00  0.00     0.027 C 
ENDBRANCH  20  21
BRANCH  20  23
ATOM     23  C   UNL     1     100.059 106.026  97.298  1.00  0.00     0.116 C 
ATOM     24  C   UNL     1     101.371 106.772  97.118  1.00  0.00     0.027 C 
ENDBRANCH  20  23
ENDBRANCH   6  18
BRANCH   2  25
ATOM     25  C   UNL     1      93.435 114.986  95.029  1.00  0.00     0.227 C 
ATOM     26  O   UNL     1      93.014 115.342  93.933  1.00  0.00    -0.274 OA
ATOM     27  C   UNL     1      93.093 115.686  96.302  1.00  0.00     0.115 C 
ENDBRANCH   2  25
TORSDOF 4
ENDMDL
MODEL 11
REMARK VINA RESULT:    -7.731      4.474      7.952
REMARK INTER + INTRA:          -9.996
REMARK INTER:                  -9.741
REMARK INTRA:                  -0.255
REMARK UNBOUND:                -0.457
REMARK SMILES CCN(CC)C(=O)[C@@H]1C=C2c3cccc4c3c(cn4C(C)=O)C[C@H]2N(C)C1
REMARK SMILES IDX 25 1 19 2 24 3 10 4 23 5 8 6 27 7 17 8 11 9 16 10 9 11 15 12
REMARK SMILES IDX 18 13 26 14 12 15 14 16 13 17 6 18 7 19 3 20 2 21 1 22 4 23
REMARK SMILES IDX 5 24 20 25 22 26 21 27
REMARK H PARENT
ROOT
ATOM      1  N   UNL     1     102.128 106.837  98.549  1.00  0.00    -0.298 NA
ATOM      2  N   UNL     1      97.355 107.153  94.789  1.00  0.00    -0.287 N 
ATOM      3  C   UNL     1     100.850 107.142  97.859  1.00  0.00     0.091 C 
ATOM      4  C   UNL     1      99.627 107.086  98.815  1.00  0.00    -0.026 C 
ATOM      5  C   UNL     1     100.571 106.346  96.529  1.00  0.00     0.061 C 
ATOM      6  C   UNL     1     100.969 105.931 100.553  1.00  0.00     0.116 C 
ATOM      7  C   UNL     1     102.028 105.688  99.459  1.00  0.00     0.102 C 
ATOM      8  C   UNL     1      99.221 106.713  95.995  1.00  0.00    -0.019 A 
ATOM      9  C   UNL     1      98.337 107.511  98.232  1.00  0.00    -0.011 A 
ATOM     10  C   UNL     1      98.242 107.259  96.850  1.00  0.00     0.011 A 
ATOM     11  C   UNL     1      99.697 106.566 100.054  1.00  0.00    -0.007 C 
ATOM     12  C   UNL     1      97.090 107.541  96.115  1.00  0.00     0.056 A 
ATOM     13  C   UNL     1      98.661 106.649  94.748  1.00  0.00     0.099 A 
ATOM     14  C   UNL     1     103.274 106.725  97.657  1.00  0.00     0.106 C 
ATOM     15  C   UNL     1      97.240 108.066  98.884  1.00  0.00     0.009 A 
ATOM     16  C   UNL     1      95.985 108.105  96.783  1.00  0.00     0.027 A 
ATOM     17  C   UNL     1      96.084 108.361  98.162  1.00  0.00     0.003 A 
ENDROOT
BRANCH   6  18
ATOM     18  C   UNL     1     100.735 104.648 101.374  1.00  0.00     0.230 C 
ATOM     19  O   UNL     1     101.045 104.665 102.573  1.00  0.00    -0.274 OA
ATOM     20  N   UNL     1     100.227 103.485 100.794  1.00  0.00    -0.343 N 
BRANCH  20  21
ATOM     21  C   UNL     1     100.062 102.321 101.673  1.00  0.00     0.116 C 
ATOM     22  C   UNL     1      98.640 102.154 102.189  1.00  0.00     0.027 C 
ENDBRANCH  20  21
BRANCH  20  23
ATOM     23  C   UNL     1      99.784 103.325  99.404  1.00  0.00     0.116 C 
ATOM     24  C   UNL     1      99.768 101.878  98.936  1.00  0.00     0.027 C 
ENDBRANCH  20  23
ENDBRANCH   6  18
BRANCH   2  25
ATOM     25  C   UNL     1      96.544 107.210  93.632  1.00  0.00     0.227 C 
ATOM     26  O   UNL     1      95.421 106.715  93.664  1.00  0.00    -0.274 OA
ATOM     27  C   UNL     1      97.105 107.883  92.425  1.00  0.00     0.115 C 
ENDBRANCH   2  25
TORSDOF 4
ENDMDL
MODEL 12
REMARK VINA RESULT:    -7.673      4.116      7.695
REMARK INTER + INTRA:          -9.925
REMARK INTER:                  -9.755
REMARK INTRA:                  -0.170
REMARK UNBOUND:                -0.457
REMARK SMILES CCN(CC)C(=O)[C@@H]1C=C2c3cccc4c3c(cn4C(C)=O)C[C@H]2N(C)C1
REMARK SMILES IDX 25 1 19 2 24 3 10 4 23 5 8 6 27 7 17 8 11 9 16 10 9 11 15 12
REMARK SMILES IDX 18 13 26 14 12 15 14 16 13 17 6 18 7 19 3 20 2 21 1 22 4 23
REMARK SMILES IDX 5 24 20 25 22 26 21 27
REMARK H PARENT
ROOT
ATOM      1  N   UNL     1     100.491 109.221  98.133  1.00  0.00    -0.298 NA
ATOM      2  N   UNL     1      99.660 103.342  99.462  1.00  0.00    -0.287 N 
ATOM      3  C   UNL     1     100.328 107.747  98.121  1.00  0.00     0.091 C 
ATOM      4  C   UNL     1      99.320 107.266  97.041  1.00  0.00    -0.026 C 
ATOM      5  C   UNL     1     100.039 107.067  99.512  1.00  0.00     0.061 C 
ATOM      6  C   UNL     1      98.474 109.577  96.723  1.00  0.00     0.116 C 
ATOM      7  C   UNL     1      99.214 109.940  98.026  1.00  0.00     0.102 C 
ATOM      8  C   UNL     1      99.832 105.596  99.322  1.00  0.00    -0.019 A 
ATOM      9  C   UNL     1      99.206 105.802  96.875  1.00  0.00    -0.011 A 
ATOM     10  C   UNL     1      99.456 105.087  98.063  1.00  0.00     0.011 A 
ATOM     11  C   UNL     1      98.505 108.110  96.383  1.00  0.00    -0.007 C 
ATOM     12  C   UNL     1      99.354 103.698  98.135  1.00  0.00     0.056 A 
ATOM     13  C   UNL     1      99.945 104.521 100.162  1.00  0.00     0.099 A 
ATOM     14  C   UNL     1     101.305 109.720  99.233  1.00  0.00     0.106 C 
ATOM     15  C   UNL     1      98.850 105.090  95.733  1.00  0.00     0.009 A 
ATOM     16  C   UNL     1      98.996 102.986  96.974  1.00  0.00     0.027 A 
ATOM     17  C   UNL     1      98.753 103.701  95.787  1.00  0.00     0.003 A 
ENDROOT
BRANCH   6  18
ATOM     18  C   UNL     1      97.057 110.180  96.720  1.00  0.00     0.230 C 
ATOM     19  O   UNL     1      96.648 110.688  95.667  1.00  0.00    -0.274 OA
ATOM     20  N   UNL     1      96.260 110.197  97.865  1.00  0.00    -0.343 N 
BRANCH  20  21
ATOM     21  C   UNL     1      94.934 110.812  97.745  1.00  0.00     0.116 C 
ATOM     22  C   UNL     1      93.806 109.796  97.649  1.00  0.00     0.027 C 
ENDBRANCH  20  21
BRANCH  20  23
ATOM     23  C   UNL     1      96.592 109.606  99.168  1.00  0.00     0.116 C 
ATOM     24  C   UNL     1      96.334 108.109  99.237  1.00  0.00     0.027 C 
ENDBRANCH  20  23
ENDBRANCH   6  18
BRANCH   2  25
ATOM     25  C   UNL     1      99.708 102.075 100.089  1.00  0.00     0.227 C 
ATOM     26  O   UNL     1     100.097 101.104  99.447  1.00  0.00    -0.274 OA
ATOM     27  C   UNL     1      99.281 101.992 101.516  1.00  0.00     0.115 C 
ENDBRANCH   2  25
TORSDOF 4
ENDMDL
MODEL 13
REMARK VINA RESULT:    -7.654      4.168      5.936
REMARK INTER + INTRA:          -9.901
REMARK INTER:                  -9.551
REMARK INTRA:                  -0.351
REMARK UNBOUND:                -0.457
REMARK SMILES CCN(CC)C(=O)[C@@H]1C=C2c3cccc4c3c(cn4C(C)=O)C[C@H]2N(C)C1
REMARK SMILES IDX 25 1 19 2 24 3 10 4 23 5 8 6 27 7 17 8 11 9 16 10 9 11 15 12
REMARK SMILES IDX 18 13 26 14 12 15 14 16 13 17 6 18 7 19 3 20 2 21 1 22 4 23
REMARK SMILES IDX 5 24 20 25 22 26 21 27
REMARK H PARENT
ROOT
ATOM      1  N   UNL     1     100.267 109.563  99.386  1.00  0.00    -0.298 NA
ATOM      2  N   UNL     1      95.645 111.495  95.932  1.00  0.00    -0.287 N 
ATOM      3  C   UNL     1      98.951 109.927  98.806  1.00  0.00     0.091 C 
ATOM      4  C   UNL     1      97.919 108.769  98.894  1.00  0.00    -0.026 C 
ATOM      5  C   UNL     1      98.976 110.558  97.364  1.00  0.00     0.061 C 
ATOM      6  C   UNL     1      99.710 107.141  99.439  1.00  0.00     0.116 C 
ATOM      7  C   UNL     1     100.716 108.221  98.993  1.00  0.00     0.102 C 
ATOM      8  C   UNL     1      97.575 110.803  96.894  1.00  0.00    -0.019 A 
ATOM      9  C   UNL     1      96.545 109.099  98.461  1.00  0.00    -0.011 A 
ATOM     10  C   UNL     1      96.500 110.091  97.463  1.00  0.00     0.011 A 
ATOM     11  C   UNL     1      98.267 107.510  99.218  1.00  0.00    -0.007 C 
ATOM     12  C   UNL     1      95.304 110.515  96.882  1.00  0.00     0.056 A 
ATOM     13  C   UNL     1      97.038 111.647  95.960  1.00  0.00     0.099 A 
ATOM     14  C   UNL     1     101.304 110.565  99.181  1.00  0.00     0.106 C 
ATOM     15  C   UNL     1      95.349 108.526  98.885  1.00  0.00     0.009 A 
ATOM     16  C   UNL     1      94.099 109.932  97.319  1.00  0.00     0.027 A 
ATOM     17  C   UNL     1      94.145 108.945  98.320  1.00  0.00     0.003 A 
ENDROOT
BRANCH   6  18
ATOM     18  C   UNL     1     100.092 105.770  98.849  1.00  0.00     0.230 C 
ATOM     19  O   UNL     1     100.177 104.810  99.627  1.00  0.00    -0.274 OA
ATOM     20  N   UNL     1     100.373 105.604  97.493  1.00  0.00    -0.343 N 
BRANCH  20  21
ATOM     21  C   UNL     1     100.741 104.254  97.050  1.00  0.00     0.116 C 
ATOM     22  C   UNL     1      99.540 103.398  96.671  1.00  0.00     0.027 C 
ENDBRANCH  20  21
BRANCH  20  23
ATOM     23  C   UNL     1     100.281 106.633  96.450  1.00  0.00     0.116 C 
ATOM     24  C   UNL     1      98.913 106.706  95.790  1.00  0.00     0.027 C 
ENDBRANCH  20  23
ENDBRANCH   6  18
BRANCH   2  25
ATOM     25  C   UNL     1      94.833 112.253  95.057  1.00  0.00     0.227 C 
ATOM     26  O   UNL     1      93.832 111.734  94.570  1.00  0.00    -0.274 OA
ATOM     27  C   UNL     1      95.241 113.660  94.777  1.00  0.00     0.115 C 
ENDBRANCH   2  25
TORSDOF 4
ENDMDL
MODEL 14
REMARK VINA RESULT:    -7.562      4.530      7.565
REMARK INTER + INTRA:          -9.787
REMARK INTER:                 -10.013
REMARK INTRA:                   0.225
REMARK UNBOUND:                -0.457
REMARK SMILES CCN(CC)C(=O)[C@@H]1C=C2c3cccc4c3c(cn4C(C)=O)C[C@H]2N(C)C1
REMARK SMILES IDX 25 1 19 2 24 3 10 4 23 5 8 6 27 7 17 8 11 9 16 10 9 11 15 12
REMARK SMILES IDX 18 13 26 14 12 15 14 16 13 17 6 18 7 19 3 20 2 21 1 22 4 23
REMARK SMILES IDX 5 24 20 25 22 26 21 27
REMARK H PARENT
ROOT
ATOM      1  N   UNL     1      99.163 103.556  96.136  1.00  0.00    -0.298 NA
ATOM      2  N   UNL     1      96.721 108.993  97.362  1.00  0.00    -0.287 N 
ATOM      3  C   UNL     1      98.891 104.970  96.496  1.00  0.00     0.091 C 
ATOM      4  C   UNL     1      99.585 105.393  97.820  1.00  0.00    -0.026 C 
ATOM      5  C   UNL     1      97.381 105.414  96.478  1.00  0.00     0.061 C 
ATOM      6  C   UNL     1     100.052 103.025  98.396  1.00  0.00     0.116 C 
ATOM      7  C   UNL     1      99.058 102.643  97.281  1.00  0.00     0.102 C 
ATOM      8  C   UNL     1      97.268 106.838  96.930  1.00  0.00    -0.019 A 
ATOM      9  C   UNL     1      99.474 106.823  98.175  1.00  0.00    -0.011 A 
ATOM     10  C   UNL     1      98.289 107.421  97.706  1.00  0.00     0.011 A 
ATOM     11  C   UNL     1     100.144 104.505  98.663  1.00  0.00    -0.007 C 
ATOM     12  C   UNL     1      97.966 108.752  97.973  1.00  0.00     0.056 A 
ATOM     13  C   UNL     1      96.319 107.806  96.736  1.00  0.00     0.099 A 
ATOM     14  C   UNL     1      98.403 103.079  94.989  1.00  0.00     0.106 C 
ATOM     15  C   UNL     1     100.356 107.594  98.927  1.00  0.00     0.009 A 
ATOM     16  C   UNL     1      98.865 109.525  98.732  1.00  0.00     0.027 A 
ATOM     17  C   UNL     1     100.052 108.927  99.195  1.00  0.00     0.003 A 
ENDROOT
BRANCH   6  18
ATOM     18  C   UNL     1      99.794 102.186  99.663  1.00  0.00     0.230 C 
ATOM     19  O   UNL     1      99.597 100.972  99.521  1.00  0.00    -0.274 OA
ATOM     20  N   UNL     1      99.741 102.765 100.931  1.00  0.00    -0.343 N 
BRANCH  20  21
ATOM     21  C   UNL     1      99.472 101.868 102.061  1.00  0.00     0.116 C 
ATOM     22  C   UNL     1     100.595 101.841 103.087  1.00  0.00     0.027 C 
ENDBRANCH  20  21
BRANCH  20  23
ATOM     23  C   UNL     1      99.987 104.175 101.258  1.00  0.00     0.116 C 
ATOM     24  C   UNL     1      98.761 104.893 101.800  1.00  0.00     0.027 C 
ENDBRANCH  20  23
ENDBRANCH   6  18
BRANCH   2  25
ATOM     25  C   UNL     1      95.928 110.163  97.317  1.00  0.00     0.227 C 
ATOM     26  O   UNL     1      96.194 111.034  96.493  1.00  0.00    -0.274 OA
ATOM     27  C   UNL     1      94.795 110.270  98.281  1.00  0.00     0.115 C 
ENDBRANCH   2  25
TORSDOF 4
ENDMDL
MODEL 15
REMARK VINA RESULT:    -7.562      4.159      7.645
REMARK INTER + INTRA:          -9.787
REMARK INTER:                  -9.492
REMARK INTRA:                  -0.294
REMARK UNBOUND:                -0.457
REMARK SMILES CCN(CC)C(=O)[C@@H]1C=C2c3cccc4c3c(cn4C(C)=O)C[C@H]2N(C)C1
REMARK SMILES IDX 25 1 19 2 24 3 10 4 23 5 8 6 27 7 17 8 11 9 16 10 9 11 15 12
REMARK SMILES IDX 18 13 26 14 12 15 14 16 13 17 6 18 7 19 3 20 2 21 1 22 4 23
REMARK SMILES IDX 5 24 20 25 22 26 21 27
REMARK H PARENT
ROOT
ATOM      1  N   UNL     1      96.902 109.941  95.614  1.00  0.00    -0.298 NA
ATOM      2  N   UNL     1      94.021 115.120  94.235  1.00  0.00    -0.287 N 
ATOM      3  C   UNL     1      96.488 111.274  95.110  1.00  0.00     0.091 C 
ATOM      4  C   UNL     1      97.559 112.369  95.369  1.00  0.00    -0.026 C 
ATOM      5  C   UNL     1      95.056 111.766  95.540  1.00  0.00     0.061 C 
ATOM      6  C   UNL     1      98.764 110.893  96.959  1.00  0.00     0.116 C 
ATOM      7  C   UNL     1      97.510 109.996  96.950  1.00  0.00     0.102 C 
ATOM      8  C   UNL     1      94.817 113.147  95.014  1.00  0.00    -0.019 A 
ATOM      9  C   UNL     1      97.280 113.693  94.777  1.00  0.00    -0.011 A 
ATOM     10  C   UNL     1      95.904 113.976  94.672  1.00  0.00     0.011 A 
ATOM     11  C   UNL     1      98.612 112.176  96.184  1.00  0.00    -0.007 C 
ATOM     12  C   UNL     1      95.425 115.192  94.184  1.00  0.00     0.056 A 
ATOM     13  C   UNL     1      93.680 113.861  94.748  1.00  0.00     0.099 A 
ATOM     14  C   UNL     1      95.862 108.925  95.531  1.00  0.00     0.106 C 
ATOM     15  C   UNL     1      98.191 114.664  94.371  1.00  0.00     0.009 A 
ATOM     16  C   UNL     1      96.354 116.167  93.773  1.00  0.00     0.027 A 
ATOM     17  C   UNL     1      97.728 115.881  93.873  1.00  0.00     0.003 A 
ENDROOT
BRANCH   6  18
ATOM     18  C   UNL     1      99.271 111.100  98.399  1.00  0.00     0.230 C 
ATOM     19  O   UNL     1      98.616 110.592  99.320  1.00  0.00    -0.274 OA
ATOM     20  N   UNL     1     100.405 111.863  98.679  1.00  0.00    -0.343 N 
BRANCH  20  21
ATOM     21  C   UNL     1     100.782 112.002 100.090  1.00  0.00     0.116 C 
ATOM     22  C   UNL     1     102.242 111.664 100.358  1.00  0.00     0.027 C 
ENDBRANCH  20  21
BRANCH  20  23
ATOM     23  C   UNL     1     101.296 112.493  97.697  1.00  0.00     0.116 C 
ATOM     24  C   UNL     1     101.404 114.001  97.858  1.00  0.00     0.027 C 
ENDBRANCH  20  23
ENDBRANCH   6  18
BRANCH   2  25
ATOM     25  C   UNL     1      93.035 116.064  93.867  1.00  0.00     0.227 C 
ATOM     26  O   UNL     1      92.269 116.494  94.726  1.00  0.00    -0.274 OA
ATOM     27  C   UNL     1      92.984 116.493  92.440  1.00  0.00     0.115 C 
ENDBRANCH   2  25
TORSDOF 4
ENDMDL
MODEL 16
REMARK VINA RESULT:    -7.541      1.539      7.647
REMARK INTER + INTRA:          -9.761
REMARK INTER:                  -9.428
REMARK INTRA:                  -0.333
REMARK UNBOUND:                -0.457
REMARK SMILES CCN(CC)C(=O)[C@@H]1C=C2c3cccc4c3c(cn4C(C)=O)C[C@H]2N(C)C1
REMARK SMILES IDX 25 1 19 2 24 3 10 4 23 5 8 6 27 7 17 8 11 9 16 10 9 11 15 12
REMARK SMILES IDX 18 13 26 14 12 15 14 16 13 17 6 18 7 19 3 20 2 21 1 22 4 23
REMARK SMILES IDX 5 24 20 25 22 26 21 27
REMARK H PARENT
ROOT
ATOM      1  N   UNL     1      94.674 110.520  96.509  1.00  0.00    -0.298 NA
ATOM      2  N   UNL     1      97.457 106.891  92.495  1.00  0.00    -0.287 N 
ATOM      3  C   UNL     1      95.267 109.390  95.752  1.00  0.00     0.091 C 
ATOM      4  C   UNL     1      96.160 108.480  96.638  1.00  0.00    -0.026 C 
ATOM      5  C   UNL     1      95.993 109.761  94.404  1.00  0.00     0.061 C 
ATOM      6  C   UNL     1      96.202 110.183  98.442  1.00  0.00     0.116 C 
ATOM      7  C   UNL     1      95.635 111.175  97.406  1.00  0.00     0.102 C 
ATOM      8  C   UNL     1      96.595 108.530  93.799  1.00  0.00    -0.019 A 
ATOM      9  C   UNL     1      96.676 107.257  95.989  1.00  0.00    -0.011 A 
ATOM     10  C   UNL     1      96.872 107.405  94.602  1.00  0.00     0.011 A 
ATOM     11  C   UNL     1      96.552 108.832  97.877  1.00  0.00    -0.007 C 
ATOM     12  C   UNL     1      97.397 106.386  93.807  1.00  0.00     0.056 A 
ATOM     13  C   UNL     1      96.963 108.202  92.522  1.00  0.00     0.099 A 
ATOM     14  C   UNL     1      93.961 111.481  95.681  1.00  0.00     0.106 C 
ATOM     15  C   UNL     1      97.017 106.045  96.582  1.00  0.00     0.009 A 
ATOM     16  C   UNL     1      97.736 105.162  94.415  1.00  0.00     0.027 A 
ATOM     17  C   UNL     1      97.535 105.014  95.800  1.00  0.00     0.003 A 
ENDROOT
BRANCH   6  18
ATOM     18  C   UNL     1      97.348 110.832  99.242  1.00  0.00     0.230 C 
ATOM     19  O   UNL     1      97.101 111.223 100.391  1.00  0.00    -0.274 OA
ATOM     20  N   UNL     1      98.617 111.016  98.693  1.00  0.00    -0.343 N 
BRANCH  20  21
ATOM     21  C   UNL     1      99.623 111.659  99.545  1.00  0.00     0.116 C 
ATOM     22  C   UNL     1      99.678 113.171  99.374  1.00  0.00     0.027 C 
ENDBRANCH  20  21
BRANCH  20  23
ATOM     23  C   UNL     1      99.066 110.576  97.366  1.00  0.00     0.116 C 
ATOM     24  C   UNL     1      99.975 109.358  97.407  1.00  0.00     0.027 C 
ENDBRANCH  20  23
ENDBRANCH   6  18
BRANCH   2  25
ATOM     25  C   UNL     1      97.906 106.291  91.295  1.00  0.00     0.227 C 
ATOM     26  O   UNL     1      97.767 105.081  91.144  1.00  0.00    -0.274 OA
ATOM     27  C   UNL     1      98.526 107.177  90.268  1.00  0.00     0.115 C 
ENDBRANCH   2  25
TORSDOF 4
ENDMDL
MODEL 17
REMARK VINA RESULT:    -7.521      3.137      4.703
REMARK INTER + INTRA:          -9.737
REMARK INTER:                  -9.642
REMARK INTRA:                  -0.096
REMARK UNBOUND:                -0.457
REMARK SMILES CCN(CC)C(=O)[C@@H]1C=C2c3cccc4c3c(cn4C(C)=O)C[C@H]2N(C)C1
REMARK SMILES IDX 25 1 19 2 24 3 10 4 23 5 8 6 27 7 17 8 11 9 16 10 9 11 15 12
REMARK SMILES IDX 18 13 26 14 12 15 14 16 13 17 6 18 7 19 3 20 2 21 1 22 4 23
REMARK SMILES IDX 5 24 20 25 22 26 21 27
REMARK H PARENT
ROOT
ATOM      1  N   UNL     1      94.966 109.789  97.466  1.00  0.00    -0.298 NA
ATOM      2  N   UNL     1      99.358 113.967  98.004  1.00  0.00    -0.287 N 
ATOM      3  C   UNL     1      95.908 110.924  97.304  1.00  0.00     0.091 C 
ATOM      4  C   UNL     1      96.535 110.982  95.884  1.00  0.00    -0.026 C 
ATOM      5  C   UNL     1      97.010 111.079  98.419  1.00  0.00     0.061 C 
ATOM      6  C   UNL     1      95.756 108.679  95.387  1.00  0.00     0.116 C 
ATOM      7  C   UNL     1      95.476 108.535  96.896  1.00  0.00     0.102 C 
ATOM      8  C   UNL     1      97.918 112.219  98.076  1.00  0.00    -0.019 A 
ATOM      9  C   UNL     1      97.378 112.162  95.602  1.00  0.00    -0.011 A 
ATOM     10  C   UNL     1      98.025 112.669  96.745  1.00  0.00     0.011 A 
ATOM     11  C   UNL     1      96.431 109.970  95.003  1.00  0.00    -0.007 C 
ATOM     12  C   UNL     1      98.904 113.751  96.690  1.00  0.00     0.056 A 
ATOM     13  C   UNL     1      98.741 113.015  98.827  1.00  0.00     0.099 A 
ATOM     14  C   UNL     1      94.481 109.609  98.828  1.00  0.00     0.106 C 
ATOM     15  C   UNL     1      97.625 112.769  94.373  1.00  0.00     0.009 A 
ATOM     16  C   UNL     1      99.146 114.361  95.444  1.00  0.00     0.027 A 
ATOM     17  C   UNL     1      98.495 113.856  94.303  1.00  0.00     0.003 A 
ENDROOT
BRANCH   6  18
ATOM     18  C   UNL     1      96.473 107.426  94.848  1.00  0.00     0.230 C 
ATOM     19  O   UNL     1      95.909 106.777  93.956  1.00  0.00    -0.274 OA
ATOM     20  N   UNL     1      97.698 107.000  95.361  1.00  0.00    -0.343 N 
BRANCH  20  21
ATOM     21  C   UNL     1      98.277 105.784  94.779  1.00  0.00     0.116 C 
ATOM     22  C   UNL     1      97.849 104.512  95.496  1.00  0.00     0.027 C 
ENDBRANCH  20  21
BRANCH  20  23
ATOM     23  C   UNL     1      98.498 107.680  96.388  1.00  0.00     0.116 C 
ATOM     24  C   UNL     1      99.920 107.152  96.496  1.00  0.00     0.027 C 
ENDBRANCH  20  23
ENDBRANCH   6  18
BRANCH   2  25
ATOM     25  C   UNL     1     100.259 114.925  98.523  1.00  0.00     0.227 C 
ATOM     26  O   UNL     1     100.321 116.033  97.998  1.00  0.00    -0.274 OA
ATOM     27  C   UNL     1     101.091 114.530  99.696  1.00  0.00     0.115 C 
ENDBRANCH   2  25
TORSDOF 4
ENDMDL
MODEL 18
REMARK VINA RESULT:    -7.465      1.932      8.053
REMARK INTER + INTRA:          -9.668
REMARK INTER:                  -9.452
REMARK INTRA:                  -0.216
REMARK UNBOUND:                -0.457
REMARK SMILES CCN(CC)C(=O)[C@@H]1C=C2c3cccc4c3c(cn4C(C)=O)C[C@H]2N(C)C1
REMARK SMILES IDX 25 1 19 2 24 3 10 4 23 5 8 6 27 7 17 8 11 9 16 10 9 11 15 12
REMARK SMILES IDX 18 13 26 14 12 15 14 16 13 17 6 18 7 19 3 20 2 21 1 22 4 23
REMARK SMILES IDX 5 24 20 25 22 26 21 27
REMARK H PARENT
ROOT
ATOM      1  N   UNL     1      96.178 110.350  95.876  1.00  0.00    -0.298 NA
ATOM      2  N   UNL     1      97.344 106.059  91.721  1.00  0.00    -0.287 N 
ATOM      3  C   UNL     1      96.422 109.092  95.127  1.00  0.00     0.091 C 
ATOM      4  C   UNL     1      97.447 108.165  95.836  1.00  0.00    -0.026 C 
ATOM      5  C   UNL     1      96.759 109.247  93.597  1.00  0.00     0.061 C 
ATOM      6  C   UNL     1      98.161 110.008  97.336  1.00  0.00     0.116 C 
ATOM      7  C   UNL     1      97.411 110.963  96.385  1.00  0.00     0.102 C 
ATOM      8  C   UNL     1      97.047 107.903  93.003  1.00  0.00    -0.019 A 
ATOM      9  C   UNL     1      97.641 106.834  95.223  1.00  0.00    -0.011 A 
ATOM     10  C   UNL     1      97.441 106.830  93.829  1.00  0.00     0.011 A 
ATOM     11  C   UNL     1      98.209 108.578  96.865  1.00  0.00    -0.007 C 
ATOM     12  C   UNL     1      97.620 105.687  93.050  1.00  0.00     0.056 A 
ATOM     13  C   UNL     1      97.000 107.417  91.724  1.00  0.00     0.099 A 
ATOM     14  C   UNL     1      95.345 111.311  95.166  1.00  0.00     0.106 C 
ATOM     15  C   UNL     1      98.027 105.649  95.842  1.00  0.00     0.009 A 
ATOM     16  C   UNL     1      98.008 104.492  93.685  1.00  0.00     0.027 A 
ATOM     17  C   UNL     1      98.202 104.496  95.079  1.00  0.00     0.003 A 
ENDROOT
BRANCH   6  18
ATOM     18  C   UNL     1      99.542 110.583  97.702  1.00  0.00     0.230 C 
ATOM     19  O   UNL     1     100.545 109.985  97.287  1.00  0.00    -0.274 OA
ATOM     20  N   UNL     1      99.680 111.716  98.504  1.00  0.00    -0.343 N 
BRANCH  20  21
ATOM     21  C   UNL     1     101.047 112.161  98.798  1.00  0.00     0.116 C 
ATOM     22  C   UNL     1     101.601 111.585 100.094  1.00  0.00     0.027 C 
ENDBRANCH  20  21
BRANCH  20  23
ATOM     23  C   UNL     1      98.592 112.545  99.038  1.00  0.00     0.116 C 
ATOM     24  C   UNL     1      97.665 111.794  99.981  1.00  0.00     0.027 C 
ENDBRANCH  20  23
ENDBRANCH   6  18
BRANCH   2  25
ATOM     25  C   UNL     1      97.372 105.303  90.527  1.00  0.00     0.227 C 
ATOM     26  O   UNL     1      96.558 104.396  90.375  1.00  0.00    -0.274 OA
ATOM     27  C   UNL     1      98.399 105.657  89.505  1.00  0.00     0.115 C 
ENDBRANCH   2  25
TORSDOF 4
ENDMDL
MODEL 19
REMARK VINA RESULT:    -7.457      3.372      8.208
REMARK INTER + INTRA:          -9.658
REMARK INTER:                  -9.132
REMARK INTRA:                  -0.526
REMARK UNBOUND:                -0.457
REMARK SMILES CCN(CC)C(=O)[C@@H]1C=C2c3cccc4c3c(cn4C(C)=O)C[C@H]2N(C)C1
REMARK SMILES IDX 25 1 19 2 24 3 10 4 23 5 8 6 27 7 17 8 11 9 16 10 9 11 15 12
REMARK SMILES IDX 18 13 26 14 12 15 14 16 13 17 6 18 7 19 3 20 2 21 1 22 4 23
REMARK SMILES IDX 5 24 20 25 22 26 21 27
REMARK H PARENT
ROOT
ATOM      1  N   UNL     1      96.567 108.671  96.298  1.00  0.00    -0.298 NA
ATOM      2  N   UNL     1      98.690 103.137  94.922  1.00  0.00    -0.287 N 
ATOM      3  C   UNL     1      97.065 107.273  96.299  1.00  0.00     0.091 C 
ATOM      4  C   UNL     1      98.189 107.041  97.346  1.00  0.00    -0.026 C 
ATOM      5  C   UNL     1      97.461 106.674  94.898  1.00  0.00     0.061 C 
ATOM      6  C   UNL     1      98.488 109.486  97.648  1.00  0.00     0.116 C 
ATOM      7  C   UNL     1      97.645 109.664  96.369  1.00  0.00     0.102 C 
ATOM      8  C   UNL     1      98.008 105.291  95.075  1.00  0.00    -0.019 A 
ATOM      9  C   UNL     1      98.643 105.644  97.503  1.00  0.00    -0.011 A 
ATOM     10  C   UNL     1      98.529 104.887  96.321  1.00  0.00     0.011 A 
ATOM     11  C   UNL     1      98.808 108.052  97.983  1.00  0.00    -0.007 C 
ATOM     12  C   UNL     1      98.946 103.558  96.240  1.00  0.00     0.056 A 
ATOM     13  C   UNL     1      98.120 104.217  94.235  1.00  0.00     0.099 A 
ATOM     14  C   UNL     1      95.626 108.965  95.225  1.00  0.00     0.106 C 
ATOM     15  C   UNL     1      99.187 105.037  98.631  1.00  0.00     0.009 A 
ATOM     16  C   UNL     1      99.493 102.951  97.387  1.00  0.00     0.027 A 
ATOM     17  C   UNL     1      99.601 103.707  98.569  1.00  0.00     0.003 A 
ENDROOT
BRANCH   6  18
ATOM     18  C   UNL     1      99.728 110.400  97.611  1.00  0.00     0.230 C 
ATOM     19  O   UNL     1     100.825 109.875  97.377  1.00  0.00    -0.274 OA
ATOM     20  N   UNL     1      99.642 111.769  97.867  1.00  0.00    -0.343 N 
BRANCH  20  21
ATOM     21  C   UNL     1     100.893 112.535  97.818  1.00  0.00     0.116 C 
ATOM     22  C   UNL     1     101.524 112.743  99.188  1.00  0.00     0.027 C 
ENDBRANCH  20  21
BRANCH  20  23
ATOM     23  C   UNL     1      98.415 112.533  98.122  1.00  0.00     0.116 C 
ATOM     24  C   UNL     1      97.888 112.376  99.539  1.00  0.00     0.027 C 
ENDBRANCH  20  23
ENDBRANCH   6  18
BRANCH   2  25
ATOM     25  C   UNL     1      98.917 101.892  94.292  1.00  0.00     0.227 C 
ATOM     26  O   UNL     1      98.327 100.897  94.704  1.00  0.00    -0.274 OA
ATOM     27  C   UNL     1      99.869 101.859  93.144  1.00  0.00     0.115 C 
ENDBRANCH   2  25
TORSDOF 4
ENDMDL
MODEL 20
REMARK VINA RESULT:    -7.374      3.456      6.465
REMARK INTER + INTRA:          -9.555
REMARK INTER:                  -9.162
REMARK INTRA:                  -0.394
REMARK UNBOUND:                -0.457
REMARK SMILES CCN(CC)C(=O)[C@@H]1C=C2c3cccc4c3c(cn4C(C)=O)C[C@H]2N(C)C1
REMARK SMILES IDX 25 1 19 2 24 3 10 4 23 5 8 6 27 7 17 8 11 9 16 10 9 11 15 12
REMARK SMILES IDX 18 13 26 14 12 15 14 16 13 17 6 18 7 19 3 20 2 21 1 22 4 23
REMARK SMILES IDX 5 24 20 25 22 26 21 27
REMARK H PARENT
ROOT
ATOM      1  N   UNL     1      98.536 106.434  95.564  1.00  0.00    -0.298 NA
ATOM      2  N   UNL     1      95.096 111.431  95.092  1.00  0.00    -0.287 N 
ATOM      3  C   UNL     1      97.996 107.813  95.483  1.00  0.00     0.091 C 
ATOM      4  C   UNL     1      98.518 108.727  96.625  1.00  0.00    -0.026 C 
ATOM      5  C   UNL     1      96.434 107.941  95.322  1.00  0.00     0.061 C 
ATOM      6  C   UNL     1      99.360 106.763  97.886  1.00  0.00     0.116 C 
ATOM      7  C   UNL     1      98.522 105.892  96.929  1.00  0.00     0.102 C 
ATOM      8  C   UNL     1      96.042 109.386  95.326  1.00  0.00    -0.019 A 
ATOM      9  C   UNL     1      98.133 110.151  96.536  1.00  0.00    -0.011 A 
ATOM     10  C   UNL     1      96.892 110.352  95.901  1.00  0.00     0.011 A 
ATOM     11  C   UNL     1      99.171 108.246  97.699  1.00  0.00    -0.007 C 
ATOM     12  C   UNL     1      96.322 111.617  95.755  1.00  0.00     0.056 A 
ATOM     13  C   UNL     1      94.952 110.059  94.845  1.00  0.00     0.099 A 
ATOM     14  C   UNL     1      97.948 105.508  94.606  1.00  0.00     0.106 C 
ATOM     15  C   UNL     1      98.815 111.259  97.031  1.00  0.00     0.009 A 
ATOM     16  C   UNL     1      97.020 112.733  96.256  1.00  0.00     0.027 A 
ATOM     17  C   UNL     1      98.262 112.531  96.886  1.00  0.00     0.003 A 
ENDROOT
BRANCH   6  18
ATOM     18  C   UNL     1      99.175 106.298  99.343  1.00  0.00     0.230 C 
ATOM     19  O   UNL     1      98.203 106.739  99.971  1.00  0.00    -0.274 OA
ATOM     20  N   UNL     1     100.082 105.439  99.964  1.00  0.00    -0.343 N 
BRANCH  20  21
ATOM     21  C   UNL     1      99.809 105.078 101.359  1.00  0.00     0.116 C 
ATOM     22  C   UNL     1      99.245 103.673 101.518  1.00  0.00     0.027 C 
ENDBRANCH  20  21
BRANCH  20  23
ATOM     23  C   UNL     1     101.254 104.810  99.341  1.00  0.00     0.116 C 
ATOM     24  C   UNL     1     102.420 105.766  99.142  1.00  0.00     0.027 C 
ENDBRANCH  20  23
ENDBRANCH   6  18
BRANCH   2  25
ATOM     25  C   UNL     1      94.112 112.365  94.692  1.00  0.00     0.227 C 
ATOM     26  O   UNL     1      92.935 112.017  94.660  1.00  0.00    -0.274 OA
ATOM     27  C   UNL     1      94.567 113.739  94.333  1.00  0.00     0.115 C 
ENDBRANCH   2  25
TORSDOF 4
ENDMDL
