MODEL 1
REMARK VINA RESULT:    -9.741      0.000      0.000
REMARK INTER + INTRA:         -12.286
REMARK INTER:                 -12.019
REMARK INTRA:                  -0.268
REMARK UNBOUND:                -0.268
REMARK SMILES CCN(CC)C(=O)[C@@H]1C=C2c3cccc4c3c(cn4C(C)=O)C[C@H]2N(C)C1
REMARK SMILES IDX 25 1 19 2 24 3 10 4 23 5 8 6 27 7 17 8 11 9 16 10 9 11 15 12
REMARK SMILES IDX 18 13 26 14 12 15 14 16 13 17 6 18 7 19 3 20 2 21 1 22 4 23
REMARK SMILES IDX 5 24 20 25 22 26 21 27
REMARK H PARENT
ROOT
ATOM      1  N   UNL     1     103.370 119.201  78.447  1.00  0.00    -0.298 NA
ATOM      2  N   UNL     1      98.636 122.781  79.786  1.00  0.00    -0.287 N 
ATOM      3  C   UNL     1     102.324 120.031  79.094  1.00  0.00     0.091 C 
ATOM      4  C   UNL     1     101.650 119.312  80.294  1.00  0.00    -0.026 C 
ATOM      5  C   UNL     1     101.249 120.667  78.135  1.00  0.00     0.061 C 
ATOM      6  C   UNL     1     102.619 117.134  79.606  1.00  0.00     0.116 C 
ATOM      7  C   UNL     1     102.959 117.803  78.259  1.00  0.00     0.102 C 
ATOM      8  C   UNL     1     100.231 121.411  78.941  1.00  0.00    -0.019 A 
ATOM      9  C   UNL     1     100.694 120.124  81.074  1.00  0.00    -0.011 A 
ATOM     10  C   UNL     1     100.041 121.106  80.304  1.00  0.00     0.011 A 
ATOM     11  C   UNL     1     101.817 118.000  80.542  1.00  0.00    -0.007 C 
ATOM     12  C   UNL     1      99.065 121.949  80.837  1.00  0.00     0.056 A 
ATOM     13  C   UNL     1      99.363 122.427  78.642  1.00  0.00     0.099 A 
ATOM     14  C   UNL     1     103.914 119.776  77.224  1.00  0.00     0.106 C 
ATOM     15  C   UNL     1     100.352 119.998  82.418  1.00  0.00     0.009 A 
ATOM     16  C   UNL     1      98.728 121.816  82.198  1.00  0.00     0.027 A 
ATOM     17  C   UNL     1      99.385 120.839  82.967  1.00  0.00     0.003 A 
ENDROOT
BRANCH   6  18
ATOM     18  C   UNL     1     102.002 115.741  79.377  1.00  0.00     0.230 C 
ATOM     19  O   UNL     1     102.698 114.751  79.641  1.00  0.00    -0.274 OA
ATOM     20  N   UNL     1     100.718 115.580  78.854  1.00  0.00    -0.343 N 
BRANCH  20  21
ATOM     21  C   UNL     1     100.244 114.204  78.666  1.00  0.00     0.116 C 
ATOM     22  C   UNL     1      99.194 113.786  79.684  1.00  0.00     0.027 C 
ENDBRANCH  20  21
BRANCH  20  23
ATOM     23  C   UNL     1      99.769 116.651  78.528  1.00  0.00     0.116 C 
ATOM     24  C   UNL     1     100.022 117.293  77.173  1.00  0.00     0.027 C 
ENDBRANCH  20  23
ENDBRANCH   6  18
BRANCH   2  25
ATOM     25  C   UNL     1      97.668 123.811  79.762  1.00  0.00     0.227 C 
ATOM     26  O   UNL     1      97.775 124.750  80.546  1.00  0.00    -0.274 OA
ATOM     27  C   UNL     1      96.561 123.700  78.769  1.00  0.00     0.115 C 
ENDBRANCH   2  25
TORSDOF 4
ENDMDL
MODEL 2
REMARK VINA RESULT:    -7.980      1.781      2.189
REMARK INTER + INTRA:         -10.115
REMARK INTER:                 -10.187
REMARK INTRA:                   0.072
REMARK UNBOUND:                -0.268
REMARK SMILES CCN(CC)C(=O)[C@@H]1C=C2c3cccc4c3c(cn4C(C)=O)C[C@H]2N(C)C1
REMARK SMILES IDX 25 1 19 2 24 3 10 4 23 5 8 6 27 7 17 8 11 9 16 10 9 11 15 12
REMARK SMILES IDX 18 13 26 14 12 15 14 16 13 17 6 18 7 19 3 20 2 21 1 22 4 23
REMARK SMILES IDX 5 24 20 25 22 26 21 27
REMARK H PARENT
ROOT
ATOM      1  N   UNL     1     102.798 118.230  78.710  1.00  0.00    -0.298 NA
ATOM      2  N   UNL     1      98.745 122.764  78.917  1.00  0.00    -0.287 N 
ATOM      3  C   UNL     1     101.909 119.357  79.086  1.00  0.00     0.091 C 
ATOM      4  C   UNL     1     101.124 119.087  80.398  1.00  0.00    -0.026 C 
ATOM      5  C   UNL     1     100.958 119.900  77.955  1.00  0.00     0.061 C 
ATOM      6  C   UNL     1     101.706 116.676  80.315  1.00  0.00     0.116 C 
ATOM      7  C   UNL     1     102.154 116.918  78.860  1.00  0.00     0.102 C 
ATOM      8  C   UNL     1     100.082 120.981  78.507  1.00  0.00    -0.019 A 
ATOM      9  C   UNL     1     100.322 120.216  80.911  1.00  0.00    -0.011 A 
ATOM     10  C   UNL     1      99.844 121.066  79.894  1.00  0.00     0.011 A 
ATOM     11  C   UNL     1     101.066 117.871  80.972  1.00  0.00    -0.007 C 
ATOM     12  C   UNL     1      99.028 122.165  80.159  1.00  0.00     0.056 A 
ATOM     13  C   UNL     1      99.400 122.017  77.928  1.00  0.00     0.099 A 
ATOM     14  C   UNL     1     103.430 118.380  77.407  1.00  0.00     0.106 C 
ATOM     15  C   UNL     1      99.966 120.491  82.229  1.00  0.00     0.009 A 
ATOM     16  C   UNL     1      98.675 122.438  81.495  1.00  0.00     0.027 A 
ATOM     17  C   UNL     1      99.157 121.591  82.510  1.00  0.00     0.003 A 
ENDROOT
BRANCH   6  18
ATOM     18  C   UNL     1     100.861 115.392  80.415  1.00  0.00     0.230 C 
ATOM     19  O   UNL     1     100.482 114.867  79.359  1.00  0.00    -0.274 OA
ATOM     20  N   UNL     1     100.492 114.846  81.645  1.00  0.00    -0.343 N 
BRANCH  20  21
ATOM     21  C   UNL     1      99.673 113.629  81.614  1.00  0.00     0.116 C 
ATOM     22  C   UNL     1      99.616 112.909  82.953  1.00  0.00     0.027 C 
ENDBRANCH  20  21
BRANCH  20  23
ATOM     23  C   UNL     1     100.893 115.333  82.971  1.00  0.00     0.116 C 
ATOM     24  C   UNL     1      99.796 116.104  83.689  1.00  0.00     0.027 C 
ENDBRANCH  20  23
ENDBRANCH   6  18
BRANCH   2  25
ATOM     25  C   UNL     1      97.967 123.900  78.597  1.00  0.00     0.227 C 
ATOM     26  O   UNL     1      98.198 124.509  77.556  1.00  0.00    -0.274 OA
ATOM     27  C   UNL     1      96.893 124.296  79.553  1.00  0.00     0.115 C 
ENDBRANCH   2  25
TORSDOF 4
ENDMDL
