MODEL 1
REMARK VINA RESULT:    -8.902      0.000      0.000
REMARK INTER + INTRA:         -11.624
REMARK INTER:                 -10.983
REMARK INTRA:                  -0.641
REMARK UNBOUND:                -0.641
REMARK SMILES CCN(CC)C(=O)[C@@H]1C=C2c3cccc4c3c(cn4C(C)=O)C[C@H]2N(C)C1
REMARK SMILES IDX 25 1 19 2 24 3 10 4 23 5 8 6 27 7 17 8 11 9 16 10 9 11 15 12
REMARK SMILES IDX 18 13 26 14 12 15 14 16 13 17 6 18 7 19 3 20 2 21 1 22 4 23
REMARK SMILES IDX 5 24 20 25 22 26 21 27
REMARK H PARENT
ROOT
ATOM      1  N   UNL     1     124.258 135.561 126.318  1.00  0.00    -0.298 NA
ATOM      2  N   UNL     1     125.058 133.065 120.827  1.00  0.00    -0.287 N 
ATOM      3  C   UNL     1     124.782 135.023 125.038  1.00  0.00     0.091 C 
ATOM      4  C   UNL     1     125.740 136.014 124.322  1.00  0.00    -0.026 C 
ATOM      5  C   UNL     1     123.713 134.442 124.039  1.00  0.00     0.061 C 
ATOM      6  C   UNL     1     125.008 137.873 125.794  1.00  0.00     0.116 C 
ATOM      7  C   UNL     1     123.837 136.964 126.221  1.00  0.00     0.102 C 
ATOM      8  C   UNL     1     124.387 134.007 122.774  1.00  0.00    -0.019 A 
ATOM      9  C   UNL     1     126.408 135.498 123.109  1.00  0.00    -0.011 A 
ATOM     10  C   UNL     1     125.643 134.537 122.419  1.00  0.00     0.011 A 
ATOM     11  C   UNL     1     125.864 137.301 124.694  1.00  0.00    -0.007 C 
ATOM     12  C   UNL     1     126.071 133.958 121.224  1.00  0.00     0.056 A 
ATOM     13  C   UNL     1     124.043 133.119 121.791  1.00  0.00     0.099 A 
ATOM     14  C   UNL     1     123.237 134.728 126.939  1.00  0.00     0.106 C 
ATOM     15  C   UNL     1     127.638 135.876 122.577  1.00  0.00     0.009 A 
ATOM     16  C   UNL     1     127.317 134.345 120.694  1.00  0.00     0.027 A 
ATOM     17  C   UNL     1     128.082 135.300 121.388  1.00  0.00     0.003 A 
ENDROOT
BRANCH   6  18
ATOM     18  C   UNL     1     124.507 139.300 125.504  1.00  0.00     0.230 C 
ATOM     19  O   UNL     1     123.365 139.429 125.043  1.00  0.00    -0.274 OA
ATOM     20  N   UNL     1     125.313 140.420 125.713  1.00  0.00    -0.343 N 
BRANCH  20  21
ATOM     21  C   UNL     1     124.732 141.728 125.386  1.00  0.00     0.116 C 
ATOM     22  C   UNL     1     124.112 142.427 126.587  1.00  0.00     0.027 C 
ENDBRANCH  20  21
BRANCH  20  23
ATOM     23  C   UNL     1     126.666 140.428 126.283  1.00  0.00     0.116 C 
ATOM     24  C   UNL     1     127.553 141.528 125.723  1.00  0.00     0.027 C 
ENDBRANCH  20  23
ENDBRANCH   6  18
BRANCH   2  25
ATOM     25  C   UNL     1     124.966 132.220 119.697  1.00  0.00     0.227 C 
ATOM     26  O   UNL     1     125.772 131.304 119.568  1.00  0.00    -0.274 OA
ATOM     27  C   UNL     1     123.876 132.492 118.716  1.00  0.00     0.115 C 
ENDBRANCH   2  25
TORSDOF 4
ENDMDL
MODEL 2
REMARK VINA RESULT:    -8.642      0.990      1.083
REMARK INTER + INTRA:         -11.304
REMARK INTER:                 -10.853
REMARK INTRA:                  -0.451
REMARK UNBOUND:                -0.641
REMARK SMILES CCN(CC)C(=O)[C@@H]1C=C2c3cccc4c3c(cn4C(C)=O)C[C@H]2N(C)C1
REMARK SMILES IDX 25 1 19 2 24 3 10 4 23 5 8 6 27 7 17 8 11 9 16 10 9 11 15 12
REMARK SMILES IDX 18 13 26 14 12 15 14 16 13 17 6 18 7 19 3 20 2 21 1 22 4 23
REMARK SMILES IDX 5 24 20 25 22 26 21 27
REMARK H PARENT
ROOT
ATOM      1  N   UNL     1     124.652 135.318 125.897  1.00  0.00    -0.298 NA
ATOM      2  N   UNL     1     126.259 133.607 120.283  1.00  0.00    -0.287 N 
ATOM      3  C   UNL     1     125.353 135.004 124.628  1.00  0.00     0.091 C 
ATOM      4  C   UNL     1     126.233 136.181 124.123  1.00  0.00    -0.026 C 
ATOM      5  C   UNL     1     124.463 134.421 123.467  1.00  0.00     0.061 C 
ATOM      6  C   UNL     1     125.134 137.749 125.701  1.00  0.00     0.116 C 
ATOM      7  C   UNL     1     124.060 136.662 125.906  1.00  0.00     0.102 C 
ATOM      8  C   UNL     1     125.298 134.223 122.240  1.00  0.00    -0.019 A 
ATOM      9  C   UNL     1     127.068 135.896 122.939  1.00  0.00    -0.011 A 
ATOM     10  C   UNL     1     126.501 134.939 122.075  1.00  0.00     0.011 A 
ATOM     11  C   UNL     1     126.153 137.420 124.642  1.00  0.00    -0.007 C 
ATOM     12  C   UNL     1     127.105 134.562 120.875  1.00  0.00     0.056 A 
ATOM     13  C   UNL     1     125.164 133.423 121.137  1.00  0.00     0.099 A 
ATOM     14  C   UNL     1     123.698 134.301 126.317  1.00  0.00     0.106 C 
ATOM     15  C   UNL     1     128.280 136.481 122.579  1.00  0.00     0.009 A 
ATOM     16  C   UNL     1     128.332 135.157 120.522  1.00  0.00     0.027 A 
ATOM     17  C   UNL     1     128.900 136.108 121.388  1.00  0.00     0.003 A 
ENDROOT
BRANCH   6  18
ATOM     18  C   UNL     1     124.478 139.130 125.515  1.00  0.00     0.230 C 
ATOM     19  O   UNL     1     123.282 139.163 125.193  1.00  0.00    -0.274 OA
ATOM     20  N   UNL     1     125.199 140.316 125.663  1.00  0.00    -0.343 N 
BRANCH  20  21
ATOM     21  C   UNL     1     124.470 141.570 125.446  1.00  0.00     0.116 C 
ATOM     22  C   UNL     1     124.078 142.269 126.740  1.00  0.00     0.027 C 
ENDBRANCH  20  21
BRANCH  20  23
ATOM     23  C   UNL     1     126.604 140.436 126.074  1.00  0.00     0.116 C 
ATOM     24  C   UNL     1     127.360 141.527 125.332  1.00  0.00     0.027 C 
ENDBRANCH  20  23
ENDBRANCH   6  18
BRANCH   2  25
ATOM     25  C   UNL     1     126.379 132.897 119.066  1.00  0.00     0.227 C 
ATOM     26  O   UNL     1     126.906 133.446 118.103  1.00  0.00    -0.274 OA
ATOM     27  C   UNL     1     125.857 131.500 119.024  1.00  0.00     0.115 C 
ENDBRANCH   2  25
TORSDOF 4
ENDMDL
MODEL 3
REMARK VINA RESULT:    -8.151      3.897      6.965
REMARK INTER + INTRA:         -10.698
REMARK INTER:                 -10.533
REMARK INTRA:                  -0.165
REMARK UNBOUND:                -0.641
REMARK SMILES CCN(CC)C(=O)[C@@H]1C=C2c3cccc4c3c(cn4C(C)=O)C[C@H]2N(C)C1
REMARK SMILES IDX 25 1 19 2 24 3 10 4 23 5 8 6 27 7 17 8 11 9 16 10 9 11 15 12
REMARK SMILES IDX 18 13 26 14 12 15 14 16 13 17 6 18 7 19 3 20 2 21 1 22 4 23
REMARK SMILES IDX 5 24 20 25 22 26 21 27
REMARK H PARENT
ROOT
ATOM      1  N   UNL     1     127.526 133.303 121.922  1.00  0.00    -0.298 NA
ATOM      2  N   UNL     1     122.519 134.252 125.247  1.00  0.00    -0.287 N 
ATOM      3  C   UNL     1     126.167 133.310 122.517  1.00  0.00     0.091 C 
ATOM      4  C   UNL     1     125.051 133.497 121.453  1.00  0.00    -0.026 C 
ATOM      5  C   UNL     1     125.949 134.271 123.745  1.00  0.00     0.061 C 
ATOM      6  C   UNL     1     126.714 134.206 119.753  1.00  0.00     0.116 C 
ATOM      7  C   UNL     1     127.717 134.354 120.915  1.00  0.00     0.102 C 
ATOM      8  C   UNL     1     124.519 134.216 124.183  1.00  0.00    -0.019 A 
ATOM      9  C   UNL     1     123.664 133.379 121.949  1.00  0.00    -0.011 A 
ATOM     10  C   UNL     1     123.518 133.780 123.292  1.00  0.00     0.011 A 
ATOM     11  C   UNL     1     125.311 133.870 120.187  1.00  0.00    -0.007 C 
ATOM     12  C   UNL     1     122.282 133.791 123.939  1.00  0.00     0.056 A 
ATOM     13  C   UNL     1     123.892 134.505 125.365  1.00  0.00     0.099 A 
ATOM     14  C   UNL     1     128.603 133.287 122.903  1.00  0.00     0.106 C 
ATOM     15  C   UNL     1     122.531 132.975 121.249  1.00  0.00     0.009 A 
ATOM     16  C   UNL     1     121.142 133.378 123.224  1.00  0.00     0.027 A 
ATOM     17  C   UNL     1     121.290 132.973 121.885  1.00  0.00     0.003 A 
ENDROOT
BRANCH   6  18
ATOM     18  C   UNL     1     126.793 135.422 118.811  1.00  0.00     0.230 C 
ATOM     19  O   UNL     1     125.802 136.161 118.738  1.00  0.00    -0.274 OA
ATOM     20  N   UNL     1     127.921 135.677 118.030  1.00  0.00    -0.343 N 
BRANCH  20  21
ATOM     21  C   UNL     1     127.874 136.857 117.159  1.00  0.00     0.116 C 
ATOM     22  C   UNL     1     128.376 138.124 117.836  1.00  0.00     0.027 C 
ENDBRANCH  20  21
BRANCH  20  23
ATOM     23  C   UNL     1     129.176 134.916 118.036  1.00  0.00     0.116 C 
ATOM     24  C   UNL     1     130.279 135.572 118.851  1.00  0.00     0.027 C 
ENDBRANCH  20  23
ENDBRANCH   6  18
BRANCH   2  25
ATOM     25  C   UNL     1     121.630 134.460 126.327  1.00  0.00     0.227 C 
ATOM     26  O   UNL     1     120.961 133.518 126.740  1.00  0.00    -0.274 OA
ATOM     27  C   UNL     1     121.558 135.831 126.911  1.00  0.00     0.115 C 
ENDBRANCH   2  25
TORSDOF 4
ENDMDL
MODEL 4
REMARK VINA RESULT:    -8.079      1.497      1.785
REMARK INTER + INTRA:         -10.609
REMARK INTER:                 -10.242
REMARK INTRA:                  -0.367
REMARK UNBOUND:                -0.641
REMARK SMILES CCN(CC)C(=O)[C@@H]1C=C2c3cccc4c3c(cn4C(C)=O)C[C@H]2N(C)C1
REMARK SMILES IDX 25 1 19 2 24 3 10 4 23 5 8 6 27 7 17 8 11 9 16 10 9 11 15 12
REMARK SMILES IDX 18 13 26 14 12 15 14 16 13 17 6 18 7 19 3 20 2 21 1 22 4 23
REMARK SMILES IDX 5 24 20 25 22 26 21 27
REMARK H PARENT
ROOT
ATOM      1  N   UNL     1     126.324 135.111 125.942  1.00  0.00    -0.298 NA
ATOM      2  N   UNL     1     126.664 133.450 120.098  1.00  0.00    -0.287 N 
ATOM      3  C   UNL     1     126.698 134.882 124.525  1.00  0.00     0.091 C 
ATOM      4  C   UNL     1     127.098 136.194 123.794  1.00  0.00    -0.026 C 
ATOM      5  C   UNL     1     125.685 134.038 123.665  1.00  0.00     0.061 C 
ATOM      6  C   UNL     1     126.143 137.570 125.625  1.00  0.00     0.116 C 
ATOM      7  C   UNL     1     125.458 136.282 126.125  1.00  0.00     0.102 C 
ATOM      8  C   UNL     1     126.168 133.957 122.250  1.00  0.00    -0.019 A 
ATOM      9  C   UNL     1     127.614 136.031 122.419  1.00  0.00    -0.011 A 
ATOM     10  C   UNL     1     127.072 134.916 121.751  1.00  0.00     0.011 A 
ATOM     11  C   UNL     1     126.875 137.413 124.317  1.00  0.00    -0.007 C 
ATOM     12  C   UNL     1     127.391 134.609 120.428  1.00  0.00     0.056 A 
ATOM     13  C   UNL     1     125.925 133.078 121.229  1.00  0.00     0.099 A 
ATOM     14  C   UNL     1     125.794 133.932 126.614  1.00  0.00     0.106 C 
ATOM     15  C   UNL     1     128.504 136.851 121.731  1.00  0.00     0.009 A 
ATOM     16  C   UNL     1     128.294 135.443 119.740  1.00  0.00     0.027 A 
ATOM     17  C   UNL     1     128.838 136.553 120.411  1.00  0.00     0.003 A 
ENDROOT
BRANCH   6  18
ATOM     18  C   UNL     1     125.153 138.750 125.638  1.00  0.00     0.230 C 
ATOM     19  O   UNL     1     123.948 138.494 125.516  1.00  0.00    -0.274 OA
ATOM     20  N   UNL     1     125.585 140.073 125.744  1.00  0.00    -0.343 N 
BRANCH  20  21
ATOM     21  C   UNL     1     124.551 141.113 125.730  1.00  0.00     0.116 C 
ATOM     22  C   UNL     1     124.523 141.916 124.437  1.00  0.00     0.027 C 
ENDBRANCH  20  21
BRANCH  20  23
ATOM     23  C   UNL     1     126.969 140.527 125.929  1.00  0.00     0.116 C 
ATOM     24  C   UNL     1     127.091 141.749 126.824  1.00  0.00     0.027 C 
ENDBRANCH  20  23
ENDBRANCH   6  18
BRANCH   2  25
ATOM     25  C   UNL     1     126.606 132.709 118.896  1.00  0.00     0.227 C 
ATOM     26  O   UNL     1     125.538 132.207 118.554  1.00  0.00    -0.274 OA
ATOM     27  C   UNL     1     127.860 132.581 118.099  1.00  0.00     0.115 C 
ENDBRANCH   2  25
TORSDOF 4
ENDMDL
MODEL 5
REMARK VINA RESULT:    -8.041      1.688      2.400
REMARK INTER + INTRA:         -10.562
REMARK INTER:                 -10.415
REMARK INTRA:                  -0.146
REMARK UNBOUND:                -0.641
REMARK SMILES CCN(CC)C(=O)[C@@H]1C=C2c3cccc4c3c(cn4C(C)=O)C[C@H]2N(C)C1
REMARK SMILES IDX 25 1 19 2 24 3 10 4 23 5 8 6 27 7 17 8 11 9 16 10 9 11 15 12
REMARK SMILES IDX 18 13 26 14 12 15 14 16 13 17 6 18 7 19 3 20 2 21 1 22 4 23
REMARK SMILES IDX 5 24 20 25 22 26 21 27
REMARK H PARENT
ROOT
ATOM      1  N   UNL     1     125.365 135.538 125.467  1.00  0.00    -0.298 NA
ATOM      2  N   UNL     1     127.565 135.138 119.808  1.00  0.00    -0.287 N 
ATOM      3  C   UNL     1     126.189 135.552 124.233  1.00  0.00     0.091 C 
ATOM      4  C   UNL     1     126.960 136.887 124.045  1.00  0.00    -0.026 C 
ATOM      5  C   UNL     1     125.460 135.124 122.905  1.00  0.00     0.061 C 
ATOM      6  C   UNL     1     125.575 137.996 125.779  1.00  0.00     0.116 C 
ATOM      7  C   UNL     1     124.622 136.788 125.674  1.00  0.00     0.102 C 
ATOM      8  C   UNL     1     126.399 135.257 121.747  1.00  0.00    -0.019 A 
ATOM      9  C   UNL     1     127.908 136.927 122.912  1.00  0.00    -0.011 A 
ATOM     10  C   UNL     1     127.520 136.108 121.834  1.00  0.00     0.011 A 
ATOM     11  C   UNL     1     126.700 137.985 124.777  1.00  0.00    -0.007 C 
ATOM     12  C   UNL     1     128.250 136.037 120.647  1.00  0.00     0.056 A 
ATOM     13  C   UNL     1     126.439 134.681 120.506  1.00  0.00     0.099 A 
ATOM     14  C   UNL     1     124.507 134.368 125.596  1.00  0.00     0.106 C 
ATOM     15  C   UNL     1     129.066 137.689 122.785  1.00  0.00     0.009 A 
ATOM     16  C   UNL     1     129.422 136.808 120.529  1.00  0.00     0.027 A 
ATOM     17  C   UNL     1     129.811 137.622 121.608  1.00  0.00     0.003 A 
ENDROOT
BRANCH   6  18
ATOM     18  C   UNL     1     124.778 139.314 125.796  1.00  0.00     0.230 C 
ATOM     19  O   UNL     1     123.543 139.243 125.737  1.00  0.00    -0.274 OA
ATOM     20  N   UNL     1     125.411 140.557 125.836  1.00  0.00    -0.343 N 
BRANCH  20  21
ATOM     21  C   UNL     1     124.547 141.743 125.832  1.00  0.00     0.116 C 
ATOM     22  C   UNL     1     124.405 142.378 124.456  1.00  0.00     0.027 C 
ENDBRANCH  20  21
BRANCH  20  23
ATOM     23  C   UNL     1     126.855 140.798 125.943  1.00  0.00     0.116 C 
ATOM     24  C   UNL     1     127.209 141.971 126.843  1.00  0.00     0.027 C 
ENDBRANCH  20  23
ENDBRANCH   6  18
BRANCH   2  25
ATOM     25  C   UNL     1     127.856 134.698 118.496  1.00  0.00     0.227 C 
ATOM     26  O   UNL     1     127.784 133.500 118.238  1.00  0.00    -0.274 OA
ATOM     27  C   UNL     1     128.233 135.729 117.487  1.00  0.00     0.115 C 
ENDBRANCH   2  25
TORSDOF 4
ENDMDL
MODEL 6
REMARK VINA RESULT:    -7.902      3.447      5.973
REMARK INTER + INTRA:         -10.391
REMARK INTER:                 -10.107
REMARK INTRA:                  -0.284
REMARK UNBOUND:                -0.641
REMARK SMILES CCN(CC)C(=O)[C@@H]1C=C2c3cccc4c3c(cn4C(C)=O)C[C@H]2N(C)C1
REMARK SMILES IDX 25 1 19 2 24 3 10 4 23 5 8 6 27 7 17 8 11 9 16 10 9 11 15 12
REMARK SMILES IDX 18 13 26 14 12 15 14 16 13 17 6 18 7 19 3 20 2 21 1 22 4 23
REMARK SMILES IDX 5 24 20 25 22 26 21 27
REMARK H PARENT
ROOT
ATOM      1  N   UNL     1     126.236 132.164 120.729  1.00  0.00    -0.298 NA
ATOM      2  N   UNL     1     128.062 137.424 118.275  1.00  0.00    -0.287 N 
ATOM      3  C   UNL     1     126.986 133.351 120.249  1.00  0.00     0.091 C 
ATOM      4  C   UNL     1     127.877 133.981 121.355  1.00  0.00    -0.026 C 
ATOM      5  C   UNL     1     126.144 134.451 119.501  1.00  0.00     0.061 C 
ATOM      6  C   UNL     1     126.711 132.677 123.115  1.00  0.00     0.116 C 
ATOM      7  C   UNL     1     125.636 132.362 122.054  1.00  0.00     0.102 C 
ATOM      8  C   UNL     1     127.026 135.608 119.145  1.00  0.00    -0.019 A 
ATOM      9  C   UNL     1     128.758 135.084 120.919  1.00  0.00    -0.011 A 
ATOM     10  C   UNL     1     128.229 135.826 119.845  1.00  0.00     0.011 A 
ATOM     11  C   UNL     1     127.771 133.643 122.653  1.00  0.00    -0.007 C 
ATOM     12  C   UNL     1     128.881 136.939 119.312  1.00  0.00     0.056 A 
ATOM     13  C   UNL     1     126.937 136.593 118.199  1.00  0.00     0.099 A 
ATOM     14  C   UNL     1     125.273 131.642 119.769  1.00  0.00     0.106 C 
ATOM     15  C   UNL     1     129.979 135.476 121.461  1.00  0.00     0.009 A 
ATOM     16  C   UNL     1     130.116 137.327 119.865  1.00  0.00     0.027 A 
ATOM     17  C   UNL     1     130.645 136.581 120.934  1.00  0.00     0.003 A 
ENDROOT
BRANCH   6  18
ATOM     18  C   UNL     1     126.054 133.076 124.449  1.00  0.00     0.230 C 
ATOM     19  O   UNL     1     126.021 132.230 125.353  1.00  0.00    -0.274 OA
ATOM     20  N   UNL     1     125.475 134.332 124.640  1.00  0.00    -0.343 N 
BRANCH  20  21
ATOM     21  C   UNL     1     124.865 134.592 125.948  1.00  0.00     0.116 C 
ATOM     22  C   UNL     1     123.354 134.411 125.954  1.00  0.00     0.027 C 
ENDBRANCH  20  21
BRANCH  20  23
ATOM     23  C   UNL     1     125.467 135.443 123.680  1.00  0.00     0.116 C 
ATOM     24  C   UNL     1     126.375 136.596 124.081  1.00  0.00     0.027 C 
ENDBRANCH  20  23
ENDBRANCH   6  18
BRANCH   2  25
ATOM     25  C   UNL     1     128.233 138.525 117.405  1.00  0.00     0.227 C 
ATOM     26  O   UNL     1     129.241 139.219 117.508  1.00  0.00    -0.274 OA
ATOM     27  C   UNL     1     127.165 138.782 116.395  1.00  0.00     0.115 C 
ENDBRANCH   2  25
TORSDOF 4
ENDMDL
MODEL 7
REMARK VINA RESULT:    -7.613      1.703      2.276
REMARK INTER + INTRA:         -10.034
REMARK INTER:                  -9.968
REMARK INTRA:                  -0.066
REMARK UNBOUND:                -0.641
REMARK SMILES CCN(CC)C(=O)[C@@H]1C=C2c3cccc4c3c(cn4C(C)=O)C[C@H]2N(C)C1
REMARK SMILES IDX 25 1 19 2 24 3 10 4 23 5 8 6 27 7 17 8 11 9 16 10 9 11 15 12
REMARK SMILES IDX 18 13 26 14 12 15 14 16 13 17 6 18 7 19 3 20 2 21 1 22 4 23
REMARK SMILES IDX 5 24 20 25 22 26 21 27
REMARK H PARENT
ROOT
ATOM      1  N   UNL     1     126.441 134.827 125.906  1.00  0.00    -0.298 NA
ATOM      2  N   UNL     1     125.168 133.333 120.146  1.00  0.00    -0.287 N 
ATOM      3  C   UNL     1     126.447 134.574 124.443  1.00  0.00     0.091 C 
ATOM      4  C   UNL     1     126.948 135.798 123.628  1.00  0.00    -0.026 C 
ATOM      5  C   UNL     1     125.119 133.988 123.832  1.00  0.00     0.061 C 
ATOM      6  C   UNL     1     126.716 137.279 125.606  1.00  0.00     0.116 C 
ATOM      7  C   UNL     1     125.899 136.146 126.257  1.00  0.00     0.102 C 
ATOM      8  C   UNL     1     125.261 133.857 122.348  1.00  0.00    -0.019 A 
ATOM      9  C   UNL     1     127.112 135.579 122.176  1.00  0.00    -0.011 A 
ATOM     10  C   UNL     1     126.218 134.624 121.654  1.00  0.00     0.011 A 
ATOM     11  C   UNL     1     127.102 137.019 124.173  1.00  0.00    -0.007 C 
ATOM     12  C   UNL     1     126.175 134.304 120.297  1.00  0.00     0.056 A 
ATOM     13  C   UNL     1     124.627 133.083 121.414  1.00  0.00     0.099 A 
ATOM     14  C   UNL     1     125.831 133.762 126.690  1.00  0.00     0.106 C 
ATOM     15  C   UNL     1     127.986 136.220 121.303  1.00  0.00     0.009 A 
ATOM     16  C   UNL     1     127.064 134.955 119.420  1.00  0.00     0.027 A 
ATOM     17  C   UNL     1     127.960 135.905 119.945  1.00  0.00     0.003 A 
ENDROOT
BRANCH   6  18
ATOM     18  C   UNL     1     126.023 138.638 125.819  1.00  0.00     0.230 C 
ATOM     19  O   UNL     1     126.702 139.568 126.273  1.00  0.00    -0.274 OA
ATOM     20  N   UNL     1     124.666 138.823 125.551  1.00  0.00    -0.343 N 
BRANCH  20  21
ATOM     21  C   UNL     1     124.113 140.157 125.808  1.00  0.00     0.116 C 
ATOM     22  C   UNL     1     124.548 141.196 124.783  1.00  0.00     0.027 C 
ENDBRANCH  20  21
BRANCH  20  23
ATOM     23  C   UNL     1     123.746 137.831 124.980  1.00  0.00     0.116 C 
ATOM     24  C   UNL     1     122.504 137.600 125.826  1.00  0.00     0.027 C 
ENDBRANCH  20  23
ENDBRANCH   6  18
BRANCH   2  25
ATOM     25  C   UNL     1     124.700 132.661 118.993  1.00  0.00     0.227 C 
ATOM     26  O   UNL     1     123.555 132.871 118.602  1.00  0.00    -0.274 OA
ATOM     27  C   UNL     1     125.638 131.727 118.306  1.00  0.00     0.115 C 
ENDBRANCH   2  25
TORSDOF 4
ENDMDL
MODEL 8
REMARK VINA RESULT:    -7.480      3.269      4.906
REMARK INTER + INTRA:          -9.870
REMARK INTER:                  -9.884
REMARK INTRA:                   0.015
REMARK UNBOUND:                -0.641
REMARK SMILES CCN(CC)C(=O)[C@@H]1C=C2c3cccc4c3c(cn4C(C)=O)C[C@H]2N(C)C1
REMARK SMILES IDX 25 1 19 2 24 3 10 4 23 5 8 6 27 7 17 8 11 9 16 10 9 11 15 12
REMARK SMILES IDX 18 13 26 14 12 15 14 16 13 17 6 18 7 19 3 20 2 21 1 22 4 23
REMARK SMILES IDX 5 24 20 25 22 26 21 27
REMARK H PARENT
ROOT
ATOM      1  N   UNL     1     123.690 133.058 122.224  1.00  0.00    -0.298 NA
ATOM      2  N   UNL     1     127.468 135.983 118.457  1.00  0.00    -0.287 N 
ATOM      3  C   UNL     1     124.851 133.596 121.474  1.00  0.00     0.091 C 
ATOM      4  C   UNL     1     125.988 134.093 122.408  1.00  0.00    -0.026 C 
ATOM      5  C   UNL     1     124.526 134.659 120.358  1.00  0.00     0.061 C 
ATOM      6  C   UNL     1     124.475 134.030 124.374  1.00  0.00     0.116 C 
ATOM      7  C   UNL     1     123.312 133.893 123.371  1.00  0.00     0.102 C 
ATOM      8  C   UNL     1     125.800 135.154 119.745  1.00  0.00    -0.019 A 
ATOM      9  C   UNL     1     127.233 134.518 121.735  1.00  0.00    -0.011 A 
ATOM     10  C   UNL     1     127.017 135.042 120.446  1.00  0.00     0.011 A 
ATOM     11  C   UNL     1     125.820 134.254 123.734  1.00  0.00    -0.007 C 
ATOM     12  C   UNL     1     128.054 135.543 119.658  1.00  0.00     0.056 A 
ATOM     13  C   UNL     1     126.092 135.735 118.541  1.00  0.00     0.099 A 
ATOM     14  C   UNL     1     122.544 132.728 121.389  1.00  0.00     0.106 C 
ATOM     15  C   UNL     1     128.532 134.498 122.236  1.00  0.00     0.009 A 
ATOM     16  C   UNL     1     129.365 135.516 120.172  1.00  0.00     0.027 A 
ATOM     17  C   UNL     1     129.580 134.988 121.458  1.00  0.00     0.003 A 
ENDROOT
BRANCH   6  18
ATOM     18  C   UNL     1     124.132 135.064 125.463  1.00  0.00     0.230 C 
ATOM     19  O   UNL     1     124.950 135.968 125.679  1.00  0.00    -0.274 OA
ATOM     20  N   UNL     1     122.962 134.978 126.218  1.00  0.00    -0.343 N 
BRANCH  20  21
ATOM     21  C   UNL     1     122.751 136.012 127.238  1.00  0.00     0.116 C 
ATOM     22  C   UNL     1     122.274 137.337 126.661  1.00  0.00     0.027 C 
ENDBRANCH  20  21
BRANCH  20  23
ATOM     23  C   UNL     1     121.888 133.990 126.054  1.00  0.00     0.116 C 
ATOM     24  C   UNL     1     120.921 133.948 127.227  1.00  0.00     0.027 C 
ENDBRANCH  20  23
ENDBRANCH   6  18
BRANCH   2  25
ATOM     25  C   UNL     1     128.048 136.576 117.312  1.00  0.00     0.227 C 
ATOM     26  O   UNL     1     128.897 135.953 116.681  1.00  0.00    -0.274 OA
ATOM     27  C   UNL     1     127.585 137.941 116.928  1.00  0.00     0.115 C 
ENDBRANCH   2  25
TORSDOF 4
ENDMDL
MODEL 9
REMARK VINA RESULT:    -7.414      3.111      6.452
REMARK INTER + INTRA:          -9.788
REMARK INTER:                  -9.249
REMARK INTRA:                  -0.539
REMARK UNBOUND:                -0.641
REMARK SMILES CCN(CC)C(=O)[C@@H]1C=C2c3cccc4c3c(cn4C(C)=O)C[C@H]2N(C)C1
REMARK SMILES IDX 25 1 19 2 24 3 10 4 23 5 8 6 27 7 17 8 11 9 16 10 9 11 15 12
REMARK SMILES IDX 18 13 26 14 12 15 14 16 13 17 6 18 7 19 3 20 2 21 1 22 4 23
REMARK SMILES IDX 5 24 20 25 22 26 21 27
REMARK H PARENT
ROOT
ATOM      1  N   UNL     1     126.398 135.620 119.906  1.00  0.00    -0.298 NA
ATOM      2  N   UNL     1     123.636 134.113 125.114  1.00  0.00    -0.287 N 
ATOM      3  C   UNL     1     125.767 135.583 121.248  1.00  0.00     0.091 C 
ATOM      4  C   UNL     1     126.638 136.269 122.337  1.00  0.00    -0.026 C 
ATOM      5  C   UNL     1     125.250 134.178 121.736  1.00  0.00     0.061 C 
ATOM      6  C   UNL     1     128.609 136.280 120.830  1.00  0.00     0.116 C 
ATOM      7  C   UNL     1     127.829 135.295 119.936  1.00  0.00     0.102 C 
ATOM      8  C   UNL     1     124.708 134.293 123.127  1.00  0.00    -0.019 A 
ATOM      9  C   UNL     1     126.017 136.393 123.672  1.00  0.00    -0.011 A 
ATOM     10  C   UNL     1     125.106 135.358 123.960  1.00  0.00     0.011 A 
ATOM     11  C   UNL     1     127.921 136.616 122.127  1.00  0.00    -0.007 C 
ATOM     12  C   UNL     1     124.446 135.261 125.185  1.00  0.00     0.056 A 
ATOM     13  C   UNL     1     123.819 133.542 123.848  1.00  0.00     0.099 A 
ATOM     14  C   UNL     1     125.687 134.851 118.894  1.00  0.00     0.106 C 
ATOM     15  C   UNL     1     126.261 137.355 124.648  1.00  0.00     0.009 A 
ATOM     16  C   UNL     1     124.696 136.240 126.165  1.00  0.00     0.027 A 
ATOM     17  C   UNL     1     125.602 137.276 125.874  1.00  0.00     0.003 A 
ENDROOT
BRANCH   6  18
ATOM     18  C   UNL     1     130.065 135.810 121.010  1.00  0.00     0.230 C 
ATOM     19  O   UNL     1     130.291 134.594 120.952  1.00  0.00    -0.274 OA
ATOM     20  N   UNL     1     131.102 136.707 121.270  1.00  0.00    -0.343 N 
BRANCH  20  21
ATOM     21  C   UNL     1     132.445 136.141 121.439  1.00  0.00     0.116 C 
ATOM     22  C   UNL     1     133.266 136.149 120.157  1.00  0.00     0.027 C 
ENDBRANCH  20  21
BRANCH  20  23
ATOM     23  C   UNL     1     130.995 138.170 121.333  1.00  0.00     0.116 C 
ATOM     24  C   UNL     1     130.732 138.698 122.735  1.00  0.00     0.027 C 
ENDBRANCH  20  23
ENDBRANCH   6  18
BRANCH   2  25
ATOM     25  C   UNL     1     122.761 133.541 126.067  1.00  0.00     0.227 C 
ATOM     26  O   UNL     1     122.798 132.330 126.262  1.00  0.00    -0.274 OA
ATOM     27  C   UNL     1     121.835 134.457 126.794  1.00  0.00     0.115 C 
ENDBRANCH   2  25
TORSDOF 4
ENDMDL
MODEL 10
REMARK VINA RESULT:    -7.199      3.605      5.879
REMARK INTER + INTRA:          -9.524
REMARK INTER:                  -9.706
REMARK INTRA:                   0.182
REMARK UNBOUND:                -0.641
REMARK SMILES CCN(CC)C(=O)[C@@H]1C=C2c3cccc4c3c(cn4C(C)=O)C[C@H]2N(C)C1
REMARK SMILES IDX 25 1 19 2 24 3 10 4 23 5 8 6 27 7 17 8 11 9 16 10 9 11 15 12
REMARK SMILES IDX 18 13 26 14 12 15 14 16 13 17 6 18 7 19 3 20 2 21 1 22 4 23
REMARK SMILES IDX 5 24 20 25 22 26 21 27
REMARK H PARENT
ROOT
ATOM      1  N   UNL     1     123.874 132.493 119.742  1.00  0.00    -0.298 NA
ATOM      2  N   UNL     1     128.341 136.491 118.700  1.00  0.00    -0.287 N 
ATOM      3  C   UNL     1     125.139 133.267 119.700  1.00  0.00     0.091 C 
ATOM      4  C   UNL     1     125.708 133.558 121.116  1.00  0.00    -0.026 C 
ATOM      5  C   UNL     1     125.130 134.568 118.813  1.00  0.00     0.061 C 
ATOM      6  C   UNL     1     123.560 132.905 122.173  1.00  0.00     0.116 C 
ATOM      7  C   UNL     1     122.938 132.978 120.764  1.00  0.00     0.102 C 
ATOM      8  C   UNL     1     126.447 135.270 118.931  1.00  0.00    -0.019 A 
ATOM      9  C   UNL     1     127.035 134.206 121.154  1.00  0.00    -0.011 A 
ATOM     10  C   UNL     1     127.279 135.039 120.045  1.00  0.00     0.011 A 
ATOM     11  C   UNL     1     124.996 133.356 122.240  1.00  0.00    -0.007 C 
ATOM     12  C   UNL     1     128.453 135.781 119.909  1.00  0.00     0.056 A 
ATOM     13  C   UNL     1     127.106 136.161 118.127  1.00  0.00     0.099 A 
ATOM     14  C   UNL     1     123.229 132.338 118.445  1.00  0.00     0.106 C 
ATOM     15  C   UNL     1     128.007 134.120 122.147  1.00  0.00     0.009 A 
ATOM     16  C   UNL     1     129.431 135.686 120.918  1.00  0.00     0.027 A 
ATOM     17  C   UNL     1     129.188 134.850 122.022  1.00  0.00     0.003 A 
ENDROOT
BRANCH   6  18
ATOM     18  C   UNL     1     122.649 133.598 123.204  1.00  0.00     0.230 C 
ATOM     19  O   UNL     1     121.425 133.536 123.026  1.00  0.00    -0.274 OA
ATOM     20  N   UNL     1     123.168 134.309 124.287  1.00  0.00    -0.343 N 
BRANCH  20  21
ATOM     21  C   UNL     1     122.202 134.940 125.193  1.00  0.00     0.116 C 
ATOM     22  C   UNL     1     122.502 136.407 125.464  1.00  0.00     0.027 C 
ENDBRANCH  20  21
BRANCH  20  23
ATOM     23  C   UNL     1     124.586 134.440 124.645  1.00  0.00     0.116 C 
ATOM     24  C   UNL     1     124.957 133.708 125.925  1.00  0.00     0.027 C 
ENDBRANCH  20  23
ENDBRANCH   6  18
BRANCH   2  25
ATOM     25  C   UNL     1     129.233 137.392 118.074  1.00  0.00     0.227 C 
ATOM     26  O   UNL     1     130.311 136.975 117.658  1.00  0.00    -0.274 OA
ATOM     27  C   UNL     1     128.806 138.816 117.948  1.00  0.00     0.115 C 
ENDBRANCH   2  25
TORSDOF 4
ENDMDL
MODEL 11
REMARK VINA RESULT:    -7.179      2.204      3.699
REMARK INTER + INTRA:          -9.499
REMARK INTER:                 -10.029
REMARK INTRA:                   0.530
REMARK UNBOUND:                -0.641
REMARK SMILES CCN(CC)C(=O)[C@@H]1C=C2c3cccc4c3c(cn4C(C)=O)C[C@H]2N(C)C1
REMARK SMILES IDX 25 1 19 2 24 3 10 4 23 5 8 6 27 7 17 8 11 9 16 10 9 11 15 12
REMARK SMILES IDX 18 13 26 14 12 15 14 16 13 17 6 18 7 19 3 20 2 21 1 22 4 23
REMARK SMILES IDX 5 24 20 25 22 26 21 27
REMARK H PARENT
ROOT
ATOM      1  N   UNL     1     122.759 132.930 122.686  1.00  0.00    -0.298 NA
ATOM      2  N   UNL     1     127.242 134.280 118.800  1.00  0.00    -0.287 N 
ATOM      3  C   UNL     1     124.050 133.125 121.982  1.00  0.00     0.091 C 
ATOM      4  C   UNL     1     125.127 133.790 122.882  1.00  0.00    -0.026 C 
ATOM      5  C   UNL     1     123.975 133.824 120.572  1.00  0.00     0.061 C 
ATOM      6  C   UNL     1     123.409 134.440 124.550  1.00  0.00     0.116 C 
ATOM      7  C   UNL     1     122.356 134.099 123.478  1.00  0.00     0.102 C 
ATOM      8  C   UNL     1     125.357 134.010 120.027  1.00  0.00    -0.019 A 
ATOM      9  C   UNL     1     126.479 133.894 122.296  1.00  0.00    -0.011 A 
ATOM     10  C   UNL     1     126.469 134.020 120.893  1.00  0.00     0.011 A 
ATOM     11  C   UNL     1     124.834 134.356 124.067  1.00  0.00    -0.007 C 
ATOM     12  C   UNL     1     127.637 134.178 120.147  1.00  0.00     0.056 A 
ATOM     13  C   UNL     1     125.846 134.176 118.759  1.00  0.00     0.099 A 
ATOM     14  C   UNL     1     121.681 132.454 121.830  1.00  0.00     0.106 C 
ATOM     15  C   UNL     1     127.704 133.924 122.957  1.00  0.00     0.009 A 
ATOM     16  C   UNL     1     128.872 134.205 120.824  1.00  0.00     0.027 A 
ATOM     17  C   UNL     1     128.881 134.074 122.224  1.00  0.00     0.003 A 
ENDROOT
BRANCH   6  18
ATOM     18  C   UNL     1     123.071 135.778 125.235  1.00  0.00     0.230 C 
ATOM     19  O   UNL     1     121.940 135.906 125.725  1.00  0.00    -0.274 OA
ATOM     20  N   UNL     1     123.981 136.835 125.279  1.00  0.00    -0.343 N 
BRANCH  20  21
ATOM     21  C   UNL     1     123.540 138.066 125.945  1.00  0.00     0.116 C 
ATOM     22  C   UNL     1     124.265 139.309 125.452  1.00  0.00     0.027 C 
ENDBRANCH  20  21
BRANCH  20  23
ATOM     23  C   UNL     1     125.360 136.819 124.777  1.00  0.00     0.116 C 
ATOM     24  C   UNL     1     126.396 136.556 125.859  1.00  0.00     0.027 C 
ENDBRANCH  20  23
ENDBRANCH   6  18
BRANCH   2  25
ATOM     25  C   UNL     1     128.009 134.453 117.625  1.00  0.00     0.227 C 
ATOM     26  O   UNL     1     128.277 133.472 116.936  1.00  0.00    -0.274 OA
ATOM     27  C   UNL     1     128.452 135.836 117.283  1.00  0.00     0.115 C 
ENDBRANCH   2  25
TORSDOF 4
ENDMDL
MODEL 12
REMARK VINA RESULT:    -7.151      3.006      7.036
REMARK INTER + INTRA:          -9.463
REMARK INTER:                  -8.755
REMARK INTRA:                  -0.708
REMARK UNBOUND:                -0.641
REMARK SMILES CCN(CC)C(=O)[C@@H]1C=C2c3cccc4c3c(cn4C(C)=O)C[C@H]2N(C)C1
REMARK SMILES IDX 25 1 19 2 24 3 10 4 23 5 8 6 27 7 17 8 11 9 16 10 9 11 15 12
REMARK SMILES IDX 18 13 26 14 12 15 14 16 13 17 6 18 7 19 3 20 2 21 1 22 4 23
REMARK SMILES IDX 5 24 20 25 22 26 21 27
REMARK H PARENT
ROOT
ATOM      1  N   UNL     1     123.901 133.712 121.556  1.00  0.00    -0.298 NA
ATOM      2  N   UNL     1     121.968 134.755 127.231  1.00  0.00    -0.287 N 
ATOM      3  C   UNL     1     123.437 134.292 122.841  1.00  0.00     0.091 C 
ATOM      4  C   UNL     1     124.331 135.468 123.322  1.00  0.00    -0.026 C 
ATOM      5  C   UNL     1     123.164 133.271 124.008  1.00  0.00     0.061 C 
ATOM      6  C   UNL     1     126.100 134.862 121.691  1.00  0.00     0.116 C 
ATOM      7  C   UNL     1     125.356 133.525 121.504  1.00  0.00     0.102 C 
ATOM      8  C   UNL     1     122.774 134.013 125.248  1.00  0.00    -0.019 A 
ATOM      9  C   UNL     1     123.857 136.186 124.523  1.00  0.00    -0.011 A 
ATOM     10  C   UNL     1     123.124 135.369 125.406  1.00  0.00     0.011 A 
ATOM     11  C   UNL     1     125.527 135.744 122.770  1.00  0.00    -0.007 C 
ATOM     12  C   UNL     1     122.626 135.839 126.622  1.00  0.00     0.056 A 
ATOM     13  C   UNL     1     122.076 133.655 126.370  1.00  0.00     0.099 A 
ATOM     14  C   UNL     1     123.183 132.510 121.154  1.00  0.00     0.106 C 
ATOM     15  C   UNL     1     124.085 137.512 124.879  1.00  0.00     0.009 A 
ATOM     16  C   UNL     1     122.859 137.183 126.972  1.00  0.00     0.027 A 
ATOM     17  C   UNL     1     123.586 137.999 126.086  1.00  0.00     0.003 A 
ENDROOT
BRANCH   6  18
ATOM     18  C   UNL     1     127.616 134.623 121.833  1.00  0.00     0.230 C 
ATOM     19  O   UNL     1     128.019 134.068 122.864  1.00  0.00    -0.274 OA
ATOM     20  N   UNL     1     128.523 135.045 120.860  1.00  0.00    -0.343 N 
BRANCH  20  21
ATOM     21  C   UNL     1     129.942 134.776 121.112  1.00  0.00     0.116 C 
ATOM     22  C   UNL     1     130.854 135.924 120.703  1.00  0.00     0.027 C 
ENDBRANCH  20  21
BRANCH  20  23
ATOM     23  C   UNL     1     128.194 135.681 119.578  1.00  0.00     0.116 C 
ATOM     24  C   UNL     1     127.908 134.685 118.464  1.00  0.00     0.027 C 
ENDBRANCH  20  23
ENDBRANCH   6  18
BRANCH   2  25
ATOM     25  C   UNL     1     121.288 134.667 128.468  1.00  0.00     0.227 C 
ATOM     26  O   UNL     1     120.088 134.406 128.473  1.00  0.00    -0.274 OA
ATOM     27  C   UNL     1     122.080 134.894 129.711  1.00  0.00     0.115 C 
ENDBRANCH   2  25
TORSDOF 4
ENDMDL
MODEL 13
REMARK VINA RESULT:    -7.146      2.696      4.812
REMARK INTER + INTRA:          -9.457
REMARK INTER:                  -9.018
REMARK INTRA:                  -0.439
REMARK UNBOUND:                -0.641
REMARK SMILES CCN(CC)C(=O)[C@@H]1C=C2c3cccc4c3c(cn4C(C)=O)C[C@H]2N(C)C1
REMARK SMILES IDX 25 1 19 2 24 3 10 4 23 5 8 6 27 7 17 8 11 9 16 10 9 11 15 12
REMARK SMILES IDX 18 13 26 14 12 15 14 16 13 17 6 18 7 19 3 20 2 21 1 22 4 23
REMARK SMILES IDX 5 24 20 25 22 26 21 27
REMARK H PARENT
ROOT
ATOM      1  N   UNL     1     127.502 137.024 122.624  1.00  0.00    -0.298 NA
ATOM      2  N   UNL     1     127.700 132.635 118.414  1.00  0.00    -0.287 N 
ATOM      3  C   UNL     1     127.239 136.067 121.520  1.00  0.00     0.091 C 
ATOM      4  C   UNL     1     125.855 135.372 121.650  1.00  0.00    -0.026 C 
ATOM      5  C   UNL     1     128.375 135.020 121.220  1.00  0.00     0.061 C 
ATOM      6  C   UNL     1     125.628 136.142 123.999  1.00  0.00     0.116 C 
ATOM      7  C   UNL     1     127.128 136.495 123.942  1.00  0.00     0.102 C 
ATOM      8  C   UNL     1     127.931 134.088 120.136  1.00  0.00    -0.019 A 
ATOM      9  C   UNL     1     125.462 134.508 120.518  1.00  0.00    -0.011 A 
ATOM     10  C   UNL     1     126.559 133.914 119.865  1.00  0.00     0.011 A 
ATOM     11  C   UNL     1     125.111 135.441 122.769  1.00  0.00    -0.007 C 
ATOM     12  C   UNL     1     126.405 133.026 118.800  1.00  0.00     0.056 A 
ATOM     13  C   UNL     1     128.610 133.297 119.248  1.00  0.00     0.099 A 
ATOM     14  C   UNL     1     128.850 137.575 122.622  1.00  0.00     0.106 C 
ATOM     15  C   UNL     1     124.178 134.198 120.079  1.00  0.00     0.009 A 
ATOM     16  C   UNL     1     125.102 132.720 118.360  1.00  0.00     0.027 A 
ATOM     17  C   UNL     1     124.008 133.318 119.010  1.00  0.00     0.003 A 
ENDROOT
BRANCH   6  18
ATOM     18  C   UNL     1     125.294 135.408 125.311  1.00  0.00     0.230 C 
ATOM     19  O   UNL     1     126.144 134.633 125.772  1.00  0.00    -0.274 OA
ATOM     20  N   UNL     1     124.067 135.570 125.955  1.00  0.00    -0.343 N 
BRANCH  20  21
ATOM     21  C   UNL     1     123.857 134.807 127.190  1.00  0.00     0.116 C 
ATOM     22  C   UNL     1     122.414 134.829 127.672  1.00  0.00     0.027 C 
ENDBRANCH  20  21
BRANCH  20  23
ATOM     23  C   UNL     1     122.983 136.474 125.551  1.00  0.00     0.116 C 
ATOM     24  C   UNL     1     123.233 137.926 125.930  1.00  0.00     0.027 C 
ENDBRANCH  20  23
ENDBRANCH   6  18
BRANCH   2  25
ATOM     25  C   UNL     1     128.131 131.753 117.396  1.00  0.00     0.227 C 
ATOM     26  O   UNL     1     127.317 131.346 116.572  1.00  0.00    -0.274 OA
ATOM     27  C   UNL     1     129.572 131.367 117.378  1.00  0.00     0.115 C 
ENDBRANCH   2  25
TORSDOF 4
ENDMDL
MODEL 14
REMARK VINA RESULT:    -7.121      2.628      3.753
REMARK INTER + INTRA:          -9.426
REMARK INTER:                  -9.803
REMARK INTRA:                   0.377
REMARK UNBOUND:                -0.641
REMARK SMILES CCN(CC)C(=O)[C@@H]1C=C2c3cccc4c3c(cn4C(C)=O)C[C@H]2N(C)C1
REMARK SMILES IDX 25 1 19 2 24 3 10 4 23 5 8 6 27 7 17 8 11 9 16 10 9 11 15 12
REMARK SMILES IDX 18 13 26 14 12 15 14 16 13 17 6 18 7 19 3 20 2 21 1 22 4 23
REMARK SMILES IDX 5 24 20 25 22 26 21 27
REMARK H PARENT
ROOT
ATOM      1  N   UNL     1     126.343 133.981 124.896  1.00  0.00    -0.298 NA
ATOM      2  N   UNL     1     128.056 134.532 119.083  1.00  0.00    -0.287 N 
ATOM      3  C   UNL     1     127.004 134.315 123.610  1.00  0.00     0.091 C 
ATOM      4  C   UNL     1     127.252 135.839 123.444  1.00  0.00    -0.026 C 
ATOM      5  C   UNL     1     126.355 133.700 122.314  1.00  0.00     0.061 C 
ATOM      6  C   UNL     1     125.724 136.350 125.331  1.00  0.00     0.116 C 
ATOM      7  C   UNL     1     125.237 134.890 125.224  1.00  0.00     0.102 C 
ATOM      8  C   UNL     1     127.090 134.183 121.102  1.00  0.00    -0.019 A 
ATOM      9  C   UNL     1     128.028 136.238 122.251  1.00  0.00    -0.011 A 
ATOM     10  C   UNL     1     127.854 135.366 121.158  1.00  0.00     0.011 A 
ATOM     11  C   UNL     1     126.695 136.758 124.254  1.00  0.00    -0.007 C 
ATOM     12  C   UNL     1     128.460 135.587 119.921  1.00  0.00     0.056 A 
ATOM     13  C   UNL     1     127.219 133.693 119.831  1.00  0.00     0.099 A 
ATOM     14  C   UNL     1     125.953 132.584 125.018  1.00  0.00     0.106 C 
ATOM     15  C   UNL     1     128.840 137.357 122.087  1.00  0.00     0.009 A 
ATOM     16  C   UNL     1     129.282 136.720 119.765  1.00  0.00     0.027 A 
ATOM     17  C   UNL     1     129.459 137.586 120.859  1.00  0.00     0.003 A 
ENDROOT
BRANCH   6  18
ATOM     18  C   UNL     1     124.528 137.309 125.478  1.00  0.00     0.230 C 
ATOM     19  O   UNL     1     124.617 138.428 124.953  1.00  0.00    -0.274 OA
ATOM     20  N   UNL     1     123.390 136.963 126.206  1.00  0.00    -0.343 N 
BRANCH  20  21
ATOM     21  C   UNL     1     122.322 137.965 126.289  1.00  0.00     0.116 C 
ATOM     22  C   UNL     1     122.509 138.949 127.435  1.00  0.00     0.027 C 
ENDBRANCH  20  21
BRANCH  20  23
ATOM     23  C   UNL     1     123.127 135.670 126.851  1.00  0.00     0.116 C 
ATOM     24  C   UNL     1     121.734 135.127 126.574  1.00  0.00     0.027 C 
ENDBRANCH  20  23
ENDBRANCH   6  18
BRANCH   2  25
ATOM     25  C   UNL     1     128.367 134.257 117.731  1.00  0.00     0.227 C 
ATOM     26  O   UNL     1     128.590 135.192 116.967  1.00  0.00    -0.274 OA
ATOM     27  C   UNL     1     128.413 132.828 117.307  1.00  0.00     0.115 C 
ENDBRANCH   2  25
TORSDOF 4
ENDMDL
MODEL 15
REMARK VINA RESULT:    -6.891      1.758      8.054
REMARK INTER + INTRA:          -9.142
REMARK INTER:                  -9.338
REMARK INTRA:                   0.196
REMARK UNBOUND:                -0.641
REMARK SMILES CCN(CC)C(=O)[C@@H]1C=C2c3cccc4c3c(cn4C(C)=O)C[C@H]2N(C)C1
REMARK SMILES IDX 25 1 19 2 24 3 10 4 23 5 8 6 27 7 17 8 11 9 16 10 9 11 15 12
REMARK SMILES IDX 18 13 26 14 12 15 14 16 13 17 6 18 7 19 3 20 2 21 1 22 4 23
REMARK SMILES IDX 5 24 20 25 22 26 21 27
REMARK H PARENT
ROOT
ATOM      1  N   UNL     1     126.947 133.918 122.895  1.00  0.00    -0.298 NA
ATOM      2  N   UNL     1     123.824 138.083 126.046  1.00  0.00    -0.287 N 
ATOM      3  C   UNL     1     126.053 134.660 123.818  1.00  0.00     0.091 C 
ATOM      4  C   UNL     1     124.601 134.109 123.815  1.00  0.00    -0.026 C 
ATOM      5  C   UNL     1     126.066 136.230 123.688  1.00  0.00     0.061 C 
ATOM      6  C   UNL     1     125.041 132.807 121.749  1.00  0.00     0.116 C 
ATOM      7  C   UNL     1     126.326 133.645 121.593  1.00  0.00     0.102 C 
ATOM      8  C   UNL     1     125.066 136.823 124.632  1.00  0.00    -0.019 A 
ATOM      9  C   UNL     1     123.684 134.707 124.807  1.00  0.00    -0.011 A 
ATOM     10  C   UNL     1     123.994 136.046 125.115  1.00  0.00     0.011 A 
ATOM     11  C   UNL     1     124.157 133.237 122.890  1.00  0.00    -0.007 C 
ATOM     12  C   UNL     1     123.226 136.810 125.993  1.00  0.00     0.056 A 
ATOM     13  C   UNL     1     124.943 138.061 125.203  1.00  0.00     0.099 A 
ATOM     14  C   UNL     1     128.273 134.504 122.754  1.00  0.00     0.106 C 
ATOM     15  C   UNL     1     122.571 134.128 125.410  1.00  0.00     0.009 A 
ATOM     16  C   UNL     1     122.103 136.215 126.600  1.00  0.00     0.027 A 
ATOM     17  C   UNL     1     121.797 134.876 126.296  1.00  0.00     0.003 A 
ENDROOT
BRANCH   6  18
ATOM     18  C   UNL     1     124.299 132.699 120.403  1.00  0.00     0.230 C 
ATOM     19  O   UNL     1     123.129 133.103 120.355  1.00  0.00    -0.274 OA
ATOM     20  N   UNL     1     124.896 132.132 119.276  1.00  0.00    -0.343 N 
BRANCH  20  21
ATOM     21  C   UNL     1     124.085 132.069 118.055  1.00  0.00     0.116 C 
ATOM     22  C   UNL     1     124.569 131.019 117.066  1.00  0.00     0.027 C 
ENDBRANCH  20  21
BRANCH  20  23
ATOM     23  C   UNL     1     126.277 131.645 119.172  1.00  0.00     0.116 C 
ATOM     24  C   UNL     1     127.195 132.587 118.408  1.00  0.00     0.027 C 
ENDBRANCH  20  23
ENDBRANCH   6  18
BRANCH   2  25
ATOM     25  C   UNL     1     123.462 139.242 126.772  1.00  0.00     0.227 C 
ATOM     26  O   UNL     1     122.497 139.196 127.528  1.00  0.00    -0.274 OA
ATOM     27  C   UNL     1     124.289 140.468 126.576  1.00  0.00     0.115 C 
ENDBRANCH   2  25
TORSDOF 4
ENDMDL
MODEL 16
REMARK VINA RESULT:    -6.854      2.280      3.193
REMARK INTER + INTRA:          -9.097
REMARK INTER:                 -10.137
REMARK INTRA:                   1.040
REMARK UNBOUND:                -0.641
REMARK SMILES CCN(CC)C(=O)[C@@H]1C=C2c3cccc4c3c(cn4C(C)=O)C[C@H]2N(C)C1
REMARK SMILES IDX 25 1 19 2 24 3 10 4 23 5 8 6 27 7 17 8 11 9 16 10 9 11 15 12
REMARK SMILES IDX 18 13 26 14 12 15 14 16 13 17 6 18 7 19 3 20 2 21 1 22 4 23
REMARK SMILES IDX 5 24 20 25 22 26 21 27
REMARK H PARENT
ROOT
ATOM      1  N   UNL     1     126.302 133.907 125.407  1.00  0.00    -0.298 NA
ATOM      2  N   UNL     1     126.895 132.870 119.440  1.00  0.00    -0.287 N 
ATOM      3  C   UNL     1     126.718 133.859 123.983  1.00  0.00     0.091 C 
ATOM      4  C   UNL     1     126.984 135.270 123.391  1.00  0.00    -0.026 C 
ATOM      5  C   UNL     1     125.812 133.001 123.022  1.00  0.00     0.061 C 
ATOM      6  C   UNL     1     125.863 136.353 125.322  1.00  0.00     0.116 C 
ATOM      7  C   UNL     1     125.313 134.958 125.680  1.00  0.00     0.102 C 
ATOM      8  C   UNL     1     126.320 133.110 121.618  1.00  0.00    -0.019 A 
ATOM      9  C   UNL     1     127.533 135.298 122.019  1.00  0.00    -0.011 A 
ATOM     10  C   UNL     1     127.123 134.202 121.234  1.00  0.00     0.011 A 
ATOM     11  C   UNL     1     126.625 136.402 124.023  1.00  0.00    -0.007 C 
ATOM     12  C   UNL     1     127.490 134.062 119.896  1.00  0.00     0.056 A 
ATOM     13  C   UNL     1     126.186 132.314 120.513  1.00  0.00     0.099 A 
ATOM     14  C   UNL     1     125.892 132.620 125.950  1.00  0.00     0.106 C 
ATOM     15  C   UNL     1     128.339 136.270 121.434  1.00  0.00     0.009 A 
ATOM     16  C   UNL     1     128.307 135.049 119.313  1.00  0.00     0.027 A 
ATOM     17  C   UNL     1     128.721 136.139 120.100  1.00  0.00     0.003 A 
ENDROOT
BRANCH   6  18
ATOM     18  C   UNL     1     124.753 137.416 125.424  1.00  0.00     0.230 C 
ATOM     19  O   UNL     1     125.078 138.605 125.305  1.00  0.00    -0.274 OA
ATOM     20  N   UNL     1     123.425 137.072 125.681  1.00  0.00    -0.343 N 
BRANCH  20  21
ATOM     21  C   UNL     1     122.459 138.172 125.773  1.00  0.00     0.116 C 
ATOM     22  C   UNL     1     122.527 138.924 127.094  1.00  0.00     0.027 C 
ENDBRANCH  20  21
BRANCH  20  23
ATOM     23  C   UNL     1     122.885 135.713 125.811  1.00  0.00     0.116 C 
ATOM     24  C   UNL     1     122.095 135.495 127.092  1.00  0.00     0.027 C 
ENDBRANCH  20  23
ENDBRANCH   6  18
BRANCH   2  25
ATOM     25  C   UNL     1     126.933 132.248 118.171  1.00  0.00     0.227 C 
ATOM     26  O   UNL     1     125.896 131.794 117.697  1.00  0.00    -0.274 OA
ATOM     27  C   UNL     1     128.248 132.182 117.470  1.00  0.00     0.115 C 
ENDBRANCH   2  25
TORSDOF 4
ENDMDL
MODEL 17
REMARK VINA RESULT:    -6.559      1.752      7.648
REMARK INTER + INTRA:          -8.733
REMARK INTER:                  -9.343
REMARK INTRA:                   0.610
REMARK UNBOUND:                -0.641
REMARK SMILES CCN(CC)C(=O)[C@@H]1C=C2c3cccc4c3c(cn4C(C)=O)C[C@H]2N(C)C1
REMARK SMILES IDX 25 1 19 2 24 3 10 4 23 5 8 6 27 7 17 8 11 9 16 10 9 11 15 12
REMARK SMILES IDX 18 13 26 14 12 15 14 16 13 17 6 18 7 19 3 20 2 21 1 22 4 23
REMARK SMILES IDX 5 24 20 25 22 26 21 27
REMARK H PARENT
ROOT
ATOM      1  N   UNL     1     126.321 133.668 123.893  1.00  0.00    -0.298 NA
ATOM      2  N   UNL     1     124.885 139.260 125.815  1.00  0.00    -0.287 N 
ATOM      3  C   UNL     1     125.730 134.867 124.537  1.00  0.00     0.091 C 
ATOM      4  C   UNL     1     124.183 134.913 124.404  1.00  0.00    -0.026 C 
ATOM      5  C   UNL     1     126.376 136.251 124.156  1.00  0.00     0.061 C 
ATOM      6  C   UNL     1     124.223 133.140 122.668  1.00  0.00     0.116 C 
ATOM      7  C   UNL     1     125.743 133.382 122.573  1.00  0.00     0.102 C 
ATOM      8  C   UNL     1     125.627 137.360 124.828  1.00  0.00    -0.019 A 
ATOM      9  C   UNL     1     123.508 136.005 125.136  1.00  0.00    -0.011 A 
ATOM     10  C   UNL     1     124.301 137.162 125.264  1.00  0.00     0.011 A 
ATOM     11  C   UNL     1     123.500 134.100 123.577  1.00  0.00    -0.007 C 
ATOM     12  C   UNL     1     123.836 138.324 125.880  1.00  0.00     0.056 A 
ATOM     13  C   UNL     1     125.963 138.643 125.165  1.00  0.00     0.099 A 
ATOM     14  C   UNL     1     127.777 133.669 123.859  1.00  0.00     0.106 C 
ATOM     15  C   UNL     1     122.214 136.026 125.649  1.00  0.00     0.009 A 
ATOM     16  C   UNL     1     122.527 138.335 126.399  1.00  0.00     0.027 A 
ATOM     17  C   UNL     1     121.738 137.177 126.275  1.00  0.00     0.003 A 
ENDROOT
BRANCH   6  18
ATOM     18  C   UNL     1     123.603 133.040 121.262  1.00  0.00     0.230 C 
ATOM     19  O   UNL     1     122.509 132.469 121.152  1.00  0.00    -0.274 OA
ATOM     20  N   UNL     1     124.254 133.535 120.131  1.00  0.00    -0.343 N 
BRANCH  20  21
ATOM     21  C   UNL     1     123.572 133.368 118.843  1.00  0.00     0.116 C 
ATOM     22  C   UNL     1     123.925 132.064 118.141  1.00  0.00     0.027 C 
ENDBRANCH  20  21
BRANCH  20  23
ATOM     23  C   UNL     1     125.529 134.263 120.108  1.00  0.00     0.116 C 
ATOM     24  C   UNL     1     125.540 135.436 119.141  1.00  0.00     0.027 C 
ENDBRANCH  20  23
ENDBRANCH   6  18
BRANCH   2  25
ATOM     25  C   UNL     1     124.961 140.593 126.278  1.00  0.00     0.227 C 
ATOM     26  O   UNL     1     123.937 141.152 126.663  1.00  0.00    -0.274 OA
ATOM     27  C   UNL     1     126.299 141.252 126.278  1.00  0.00     0.115 C 
ENDBRANCH   2  25
TORSDOF 4
ENDMDL
MODEL 18
REMARK VINA RESULT:    -6.493      4.587      8.134
REMARK INTER + INTRA:          -8.652
REMARK INTER:                  -8.348
REMARK INTRA:                  -0.304
REMARK UNBOUND:                -0.641
REMARK SMILES CCN(CC)C(=O)[C@@H]1C=C2c3cccc4c3c(cn4C(C)=O)C[C@H]2N(C)C1
REMARK SMILES IDX 25 1 19 2 24 3 10 4 23 5 8 6 27 7 17 8 11 9 16 10 9 11 15 12
REMARK SMILES IDX 18 13 26 14 12 15 14 16 13 17 6 18 7 19 3 20 2 21 1 22 4 23
REMARK SMILES IDX 5 24 20 25 22 26 21 27
REMARK H PARENT
ROOT
ATOM      1  N   UNL     1     125.007 134.367 121.743  1.00  0.00    -0.298 NA
ATOM      2  N   UNL     1     130.489 136.758 120.627  1.00  0.00    -0.287 N 
ATOM      3  C   UNL     1     126.165 135.172 121.283  1.00  0.00     0.091 C 
ATOM      4  C   UNL     1     126.154 135.412 119.749  1.00  0.00    -0.026 C 
ATOM      5  C   UNL     1     127.583 134.695 121.775  1.00  0.00     0.061 C 
ATOM      6  C   UNL     1     124.427 133.659 119.431  1.00  0.00     0.116 C 
ATOM      7  C   UNL     1     124.730 133.214 120.876  1.00  0.00     0.102 C 
ATOM      8  C   UNL     1     128.645 135.562 121.173  1.00  0.00    -0.019 A 
ATOM      9  C   UNL     1     127.201 136.319 119.233  1.00  0.00    -0.011 A 
ATOM     10  C   UNL     1     128.384 136.293 119.996  1.00  0.00     0.011 A 
ATOM     11  C   UNL     1     125.335 134.745 118.915  1.00  0.00    -0.007 C 
ATOM     12  C   UNL     1     129.512 137.040 119.655  1.00  0.00     0.056 A 
ATOM     13  C   UNL     1     129.932 135.852 121.538  1.00  0.00     0.099 A 
ATOM     14  C   UNL     1     125.066 133.989 123.148  1.00  0.00     0.106 C 
ATOM     15  C   UNL     1     127.158 137.126 118.099  1.00  0.00     0.009 A 
ATOM     16  C   UNL     1     129.459 137.855 118.507  1.00  0.00     0.027 A 
ATOM     17  C   UNL     1     128.274 137.884 117.749  1.00  0.00     0.003 A 
ENDROOT
BRANCH   6  18
ATOM     18  C   UNL     1     124.337 132.438 118.496  1.00  0.00     0.230 C 
ATOM     19  O   UNL     1     123.217 132.113 118.077  1.00  0.00    -0.274 OA
ATOM     20  N   UNL     1     125.462 131.688 118.153  1.00  0.00    -0.343 N 
BRANCH  20  21
ATOM     21  C   UNL     1     125.249 130.537 117.268  1.00  0.00     0.116 C 
ATOM     22  C   UNL     1     125.472 130.860 115.797  1.00  0.00     0.027 C 
ENDBRANCH  20  21
BRANCH  20  23
ATOM     23  C   UNL     1     126.850 131.969 118.540  1.00  0.00     0.116 C 
ATOM     24  C   UNL     1     127.643 132.697 117.467  1.00  0.00     0.027 C 
ENDBRANCH  20  23
ENDBRANCH   6  18
BRANCH   2  25
ATOM     25  C   UNL     1     131.813 137.235 120.768  1.00  0.00     0.227 C 
ATOM     26  O   UNL     1     131.996 138.393 121.130  1.00  0.00    -0.274 OA
ATOM     27  C   UNL     1     132.926 136.287 120.469  1.00  0.00     0.115 C 
ENDBRANCH   2  25
TORSDOF 4
ENDMDL
