MODEL 1
REMARK VINA RESULT:    -5.921      0.000      0.000
REMARK INTER + INTRA:          -8.000
REMARK INTER:                  -7.305
REMARK INTRA:                  -0.695
REMARK UNBOUND:                -0.695
REMARK SMILES CCN(CC)C(=O)[C@@H]1C=C2c3cccc4c3c(cn4C(C)=O)C[C@H]2N(C)C1
REMARK SMILES IDX 25 1 19 2 24 3 10 4 23 5 8 6 27 7 17 8 11 9 16 10 9 11 15 12
REMARK SMILES IDX 18 13 26 14 12 15 14 16 13 17 6 18 7 19 3 20 2 21 1 22 4 23
REMARK SMILES IDX 5 24 20 25 22 26 21 27
REMARK H PARENT
ROOT
ATOM      1  N   UNL     1      98.425 127.880 122.061  1.00  0.00    -0.298 NA
ATOM      2  N   UNL     1      93.335 131.143 122.750  1.00  0.00    -0.287 N 
ATOM      3  C   UNL     1      97.068 128.391 122.377  1.00  0.00     0.091 C 
ATOM      4  C   UNL     1      95.944 127.414 121.933  1.00  0.00    -0.026 C 
ATOM      5  C   UNL     1      96.755 129.864 121.918  1.00  0.00     0.061 C 
ATOM      6  C   UNL     1      97.541 126.121 120.543  1.00  0.00     0.116 C 
ATOM      7  C   UNL     1      98.520 127.299 120.716  1.00  0.00     0.102 C 
ATOM      8  C   UNL     1      95.334 130.204 122.244  1.00  0.00    -0.019 A 
ATOM      9  C   UNL     1      94.572 127.789 122.335  1.00  0.00    -0.011 A 
ATOM     10  C   UNL     1      94.383 129.181 122.434  1.00  0.00     0.011 A 
ATOM     11  C   UNL     1      96.173 126.362 121.127  1.00  0.00    -0.007 C 
ATOM     12  C   UNL     1      93.149 129.748 122.753  1.00  0.00     0.056 A 
ATOM     13  C   UNL     1      94.677 131.390 122.434  1.00  0.00     0.099 A 
ATOM     14  C   UNL     1      99.494 128.835 122.319  1.00  0.00     0.106 C 
ATOM     15  C   UNL     1      93.485 126.952 122.571  1.00  0.00     0.009 A 
ATOM     16  C   UNL     1      92.055 128.893 122.993  1.00  0.00     0.027 A 
ATOM     17  C   UNL     1      92.248 127.503 122.899  1.00  0.00     0.003 A 
ENDROOT
BRANCH   6  18
ATOM     18  C   UNL     1      97.510 125.654 119.075  1.00  0.00     0.230 C 
ATOM     19  O   UNL     1      97.669 126.509 118.194  1.00  0.00    -0.274 OA
ATOM     20  N   UNL     1      97.273 124.323 118.730  1.00  0.00    -0.343 N 
BRANCH  20  21
ATOM     21  C   UNL     1      97.250 124.000 117.299  1.00  0.00     0.116 C 
ATOM     22  C   UNL     1      97.566 122.540 117.007  1.00  0.00     0.027 C 
ENDBRANCH  20  21
BRANCH  20  23
ATOM     23  C   UNL     1      97.102 123.198 119.658  1.00  0.00     0.116 C 
ATOM     24  C   UNL     1      95.647 122.902 119.989  1.00  0.00     0.027 C 
ENDBRANCH  20  23
ENDBRANCH   6  18
BRANCH   2  25
ATOM     25  C   UNL     1      92.425 132.195 123.003  1.00  0.00     0.227 C 
ATOM     26  O   UNL     1      92.371 132.681 124.129  1.00  0.00    -0.274 OA
ATOM     27  C   UNL     1      91.574 132.662 121.870  1.00  0.00     0.115 C 
ENDBRANCH   2  25
TORSDOF 4
ENDMDL
MODEL 2
REMARK VINA RESULT:    -5.635      3.531      5.877
REMARK INTER + INTRA:          -7.648
REMARK INTER:                  -7.381
REMARK INTRA:                  -0.267
REMARK UNBOUND:                -0.695
REMARK SMILES CCN(CC)C(=O)[C@@H]1C=C2c3cccc4c3c(cn4C(C)=O)C[C@H]2N(C)C1
REMARK SMILES IDX 25 1 19 2 24 3 10 4 23 5 8 6 27 7 17 8 11 9 16 10 9 11 15 12
REMARK SMILES IDX 18 13 26 14 12 15 14 16 13 17 6 18 7 19 3 20 2 21 1 22 4 23
REMARK SMILES IDX 5 24 20 25 22 26 21 27
REMARK H PARENT
ROOT
ATOM      1  N   UNL     1      96.946 122.794 118.579  1.00  0.00    -0.298 NA
ATOM      2  N   UNL     1      98.046 128.035 121.468  1.00  0.00    -0.287 N 
ATOM      3  C   UNL     1      97.003 124.201 119.048  1.00  0.00     0.091 C 
ATOM      4  C   UNL     1      97.276 125.205 117.895  1.00  0.00    -0.026 C 
ATOM      5  C   UNL     1      97.939 124.485 120.282  1.00  0.00     0.061 C 
ATOM      6  C   UNL     1      97.949 123.362 116.376  1.00  0.00     0.116 C 
ATOM      7  C   UNL     1      98.015 122.464 117.627  1.00  0.00     0.102 C 
ATOM      8  C   UNL     1      97.942 125.951 120.587  1.00  0.00    -0.019 A 
ATOM      9  C   UNL     1      97.212 126.635 118.260  1.00  0.00    -0.011 A 
ATOM     10  C   UNL     1      97.581 126.885 119.596  1.00  0.00     0.011 A 
ATOM     11  C   UNL     1      97.671 124.813 116.670  1.00  0.00    -0.007 C 
ATOM     12  C   UNL     1      97.634 128.173 120.130  1.00  0.00     0.056 A 
ATOM     13  C   UNL     1      98.228 126.669 121.717  1.00  0.00     0.099 A 
ATOM     14  C   UNL     1      96.850 121.813 119.651  1.00  0.00     0.106 C 
ATOM     15  C   UNL     1      96.884 127.717 117.447  1.00  0.00     0.009 A 
ATOM     16  C   UNL     1      97.298 129.261 119.301  1.00  0.00     0.027 A 
ATOM     17  C   UNL     1      96.924 129.009 117.969  1.00  0.00     0.003 A 
ENDROOT
BRANCH   6  18
ATOM     18  C   UNL     1      99.186 123.140 115.485  1.00  0.00     0.230 C 
ATOM     19  O   UNL     1     100.012 124.060 115.404  1.00  0.00    -0.274 OA
ATOM     20  N   UNL     1      99.367 121.965 114.755  1.00  0.00    -0.343 N 
BRANCH  20  21
ATOM     21  C   UNL     1     100.577 121.875 113.929  1.00  0.00     0.116 C 
ATOM     22  C   UNL     1     100.406 122.484 112.544  1.00  0.00     0.027 C 
ENDBRANCH  20  21
BRANCH  20  23
ATOM     23  C   UNL     1      98.498 120.782 114.776  1.00  0.00     0.116 C 
ATOM     24  C   UNL     1      99.086 119.586 114.044  1.00  0.00     0.027 C 
ENDBRANCH  20  23
ENDBRANCH   6  18
BRANCH   2  25
ATOM     25  C   UNL     1      98.268 129.009 122.469  1.00  0.00     0.227 C 
ATOM     26  O   UNL     1      99.353 129.042 123.042  1.00  0.00    -0.274 OA
ATOM     27  C   UNL     1      97.156 129.956 122.772  1.00  0.00     0.115 C 
ENDBRANCH   2  25
TORSDOF 4
ENDMDL
MODEL 3
REMARK VINA RESULT:    -5.236      6.171      9.107
REMARK INTER + INTRA:          -7.155
REMARK INTER:                  -7.059
REMARK INTRA:                  -0.096
REMARK UNBOUND:                -0.695
REMARK SMILES CCN(CC)C(=O)[C@@H]1C=C2c3cccc4c3c(cn4C(C)=O)C[C@H]2N(C)C1
REMARK SMILES IDX 25 1 19 2 24 3 10 4 23 5 8 6 27 7 17 8 11 9 16 10 9 11 15 12
REMARK SMILES IDX 18 13 26 14 12 15 14 16 13 17 6 18 7 19 3 20 2 21 1 22 4 23
REMARK SMILES IDX 5 24 20 25 22 26 21 27
REMARK H PARENT
ROOT
ATOM      1  N   UNL     1      99.110 122.388 113.912  1.00  0.00    -0.298 NA
ATOM      2  N   UNL     1      96.895 121.245 119.463  1.00  0.00    -0.287 N 
ATOM      3  C   UNL     1      98.416 122.410 115.223  1.00  0.00     0.091 C 
ATOM      4  C   UNL     1      98.610 123.754 115.979  1.00  0.00    -0.026 C 
ATOM      5  C   UNL     1      98.679 121.181 116.171  1.00  0.00     0.061 C 
ATOM      6  C   UNL     1     100.452 124.409 114.451  1.00  0.00     0.116 C 
ATOM      7  C   UNL     1     100.468 122.944 113.972  1.00  0.00     0.102 C 
ATOM      8  C   UNL     1      97.969 121.386 117.473  1.00  0.00    -0.019 A 
ATOM      9  C   UNL     1      97.838 123.904 117.229  1.00  0.00    -0.011 A 
ATOM     10  C   UNL     1      97.603 122.682 117.888  1.00  0.00     0.011 A 
ATOM     11  C   UNL     1      99.514 124.675 115.600  1.00  0.00    -0.007 C 
ATOM     12  C   UNL     1      96.934 122.607 119.110  1.00  0.00     0.056 A 
ATOM     13  C   UNL     1      97.537 120.525 118.446  1.00  0.00     0.099 A 
ATOM     14  C   UNL     1      99.082 121.092 113.247  1.00  0.00     0.106 C 
ATOM     15  C   UNL     1      97.379 125.078 117.822  1.00  0.00     0.009 A 
ATOM     16  C   UNL     1      96.471 123.798 119.700  1.00  0.00     0.027 A 
ATOM     17  C   UNL     1      96.702 125.018 119.038  1.00  0.00     0.003 A 
ENDROOT
BRANCH   6  18
ATOM     18  C   UNL     1     101.887 124.913 114.699  1.00  0.00     0.230 C 
ATOM     19  O   UNL     1     102.789 124.068 114.784  1.00  0.00    -0.274 OA
ATOM     20  N   UNL     1     102.175 126.268 114.864  1.00  0.00    -0.343 N 
BRANCH  20  21
ATOM     21  C   UNL     1     103.576 126.626 115.111  1.00  0.00     0.116 C 
ATOM     22  C   UNL     1     103.767 127.488 116.350  1.00  0.00     0.027 C 
ENDBRANCH  20  21
BRANCH  20  23
ATOM     23  C   UNL     1     101.223 127.381 114.756  1.00  0.00     0.116 C 
ATOM     24  C   UNL     1     100.691 127.855 116.099  1.00  0.00     0.027 C 
ENDBRANCH  20  23
ENDBRANCH   6  18
BRANCH   2  25
ATOM     25  C   UNL     1      96.344 120.601 120.595  1.00  0.00     0.227 C 
ATOM     26  O   UNL     1      96.946 120.652 121.664  1.00  0.00    -0.274 OA
ATOM     27  C   UNL     1      95.043 119.892 120.424  1.00  0.00     0.115 C 
ENDBRANCH   2  25
TORSDOF 4
ENDMDL
MODEL 4
REMARK VINA RESULT:    -5.235      3.678      6.513
REMARK INTER + INTRA:          -7.154
REMARK INTER:                  -6.622
REMARK INTRA:                  -0.531
REMARK UNBOUND:                -0.695
REMARK SMILES CCN(CC)C(=O)[C@@H]1C=C2c3cccc4c3c(cn4C(C)=O)C[C@H]2N(C)C1
REMARK SMILES IDX 25 1 19 2 24 3 10 4 23 5 8 6 27 7 17 8 11 9 16 10 9 11 15 12
REMARK SMILES IDX 18 13 26 14 12 15 14 16 13 17 6 18 7 19 3 20 2 21 1 22 4 23
REMARK SMILES IDX 5 24 20 25 22 26 21 27
REMARK H PARENT
ROOT
ATOM      1  N   UNL     1      96.290 122.398 118.100  1.00  0.00    -0.298 NA
ATOM      2  N   UNL     1      98.056 127.290 121.258  1.00  0.00    -0.287 N 
ATOM      3  C   UNL     1      96.605 123.760 118.597  1.00  0.00     0.091 C 
ATOM      4  C   UNL     1      97.368 124.616 117.549  1.00  0.00    -0.026 C 
ATOM      5  C   UNL     1      97.295 123.842 120.010  1.00  0.00     0.061 C 
ATOM      6  C   UNL     1      97.854 122.606 116.178  1.00  0.00     0.116 C 
ATOM      7  C   UNL     1      97.416 121.769 117.397  1.00  0.00     0.102 C 
ATOM      8  C   UNL     1      97.610 125.269 120.336  1.00  0.00    -0.019 A 
ATOM      9  C   UNL     1      97.598 126.028 117.919  1.00  0.00    -0.011 A 
ATOM     10  C   UNL     1      97.723 126.226 119.308  1.00  0.00     0.011 A 
ATOM     11  C   UNL     1      97.902 124.090 116.432  1.00  0.00    -0.007 C 
ATOM     12  C   UNL     1      97.990 127.477 119.864  1.00  0.00     0.056 A 
ATOM     13  C   UNL     1      97.822 125.933 121.515  1.00  0.00     0.099 A 
ATOM     14  C   UNL     1      95.717 121.515 119.107  1.00  0.00     0.106 C 
ATOM     15  C   UNL     1      97.742 127.126 117.075  1.00  0.00     0.009 A 
ATOM     16  C   UNL     1      98.132 128.582 119.004  1.00  0.00     0.027 A 
ATOM     17  C   UNL     1      98.001 128.384 117.617  1.00  0.00     0.003 A 
ENDROOT
BRANCH   6  18
ATOM     18  C   UNL     1      99.153 122.042 115.573  1.00  0.00     0.230 C 
ATOM     19  O   UNL     1      99.801 121.231 116.249  1.00  0.00    -0.274 OA
ATOM     20  N   UNL     1      99.621 122.448 114.323  1.00  0.00    -0.343 N 
BRANCH  20  21
ATOM     21  C   UNL     1     100.879 121.854 113.858  1.00  0.00     0.116 C 
ATOM     22  C   UNL     1     100.697 120.906 112.681  1.00  0.00     0.027 C 
ENDBRANCH  20  21
BRANCH  20  23
ATOM     23  C   UNL     1      98.949 123.369 113.397  1.00  0.00     0.116 C 
ATOM     24  C   UNL     1      99.849 124.488 112.897  1.00  0.00     0.027 C 
ENDBRANCH  20  23
ENDBRANCH   6  18
BRANCH   2  25
ATOM     25  C   UNL     1      98.300 128.213 122.301  1.00  0.00     0.227 C 
ATOM     26  O   UNL     1      99.356 128.144 122.925  1.00  0.00    -0.274 OA
ATOM     27  C   UNL     1      97.250 129.233 122.584  1.00  0.00     0.115 C 
ENDBRANCH   2  25
TORSDOF 4
ENDMDL
MODEL 5
REMARK VINA RESULT:    -5.182      6.799      8.695
REMARK INTER + INTRA:          -7.089
REMARK INTER:                  -6.498
REMARK INTRA:                  -0.591
REMARK UNBOUND:                -0.695
REMARK SMILES CCN(CC)C(=O)[C@@H]1C=C2c3cccc4c3c(cn4C(C)=O)C[C@H]2N(C)C1
REMARK SMILES IDX 25 1 19 2 24 3 10 4 23 5 8 6 27 7 17 8 11 9 16 10 9 11 15 12
REMARK SMILES IDX 18 13 26 14 12 15 14 16 13 17 6 18 7 19 3 20 2 21 1 22 4 23
REMARK SMILES IDX 5 24 20 25 22 26 21 27
REMARK H PARENT
ROOT
ATOM      1  N   UNL     1      98.333 124.243 116.940  1.00  0.00    -0.298 NA
ATOM      2  N   UNL     1      94.023 121.054 119.819  1.00  0.00    -0.287 N 
ATOM      3  C   UNL     1      97.549 123.298 117.774  1.00  0.00     0.091 C 
ATOM      4  C   UNL     1      98.001 121.824 117.592  1.00  0.00    -0.026 C 
ATOM      5  C   UNL     1      95.982 123.428 117.686  1.00  0.00     0.061 C 
ATOM      6  C   UNL     1      99.293 122.413 115.558  1.00  0.00     0.116 C 
ATOM      7  C   UNL     1      98.541 123.759 115.569  1.00  0.00     0.102 C 
ATOM      8  C   UNL     1      95.339 122.367 118.524  1.00  0.00    -0.019 A 
ATOM      9  C   UNL     1      97.360 120.840 118.489  1.00  0.00    -0.011 A 
ATOM     10  C   UNL     1      96.050 121.199 118.863  1.00  0.00     0.011 A 
ATOM     11  C   UNL     1      98.825 121.434 116.602  1.00  0.00    -0.007 C 
ATOM     12  C   UNL     1      95.252 120.386 119.667  1.00  0.00     0.056 A 
ATOM     13  C   UNL     1      94.106 122.259 119.109  1.00  0.00     0.099 A 
ATOM     14  C   UNL     1      97.835 125.611 116.965  1.00  0.00     0.106 C 
ATOM     15  C   UNL     1      97.874 119.629 118.946  1.00  0.00     0.009 A 
ATOM     16  C   UNL     1      95.781 119.164 120.127  1.00  0.00     0.027 A 
ATOM     17  C   UNL     1      97.091 118.810 119.758  1.00  0.00     0.003 A 
ENDROOT
BRANCH   6  18
ATOM     18  C   UNL     1      99.328 121.825 114.134  1.00  0.00     0.230 C 
ATOM     19  O   UNL     1      98.509 120.939 113.855  1.00  0.00    -0.274 OA
ATOM     20  N   UNL     1     100.269 122.237 113.189  1.00  0.00    -0.343 N 
BRANCH  20  21
ATOM     21  C   UNL     1     100.214 121.594 111.872  1.00  0.00     0.116 C 
ATOM     22  C   UNL     1     101.047 120.323 111.789  1.00  0.00     0.027 C 
ENDBRANCH  20  21
BRANCH  20  23
ATOM     23  C   UNL     1     101.273 123.295 113.362  1.00  0.00     0.116 C 
ATOM     24  C   UNL     1     100.963 124.558 112.574  1.00  0.00     0.027 C 
ENDBRANCH  20  23
ENDBRANCH   6  18
BRANCH   2  25
ATOM     25  C   UNL     1      92.856 120.688 120.528  1.00  0.00     0.227 C 
ATOM     26  O   UNL     1      91.844 120.388 119.899  1.00  0.00    -0.274 OA
ATOM     27  C   UNL     1      92.922 120.682 122.018  1.00  0.00     0.115 C 
ENDBRANCH   2  25
TORSDOF 4
ENDMDL
MODEL 6
REMARK VINA RESULT:    -4.627      6.122      8.358
REMARK INTER + INTRA:          -6.403
REMARK INTER:                  -6.293
REMARK INTRA:                  -0.110
REMARK UNBOUND:                -0.695
REMARK SMILES CCN(CC)C(=O)[C@@H]1C=C2c3cccc4c3c(cn4C(C)=O)C[C@H]2N(C)C1
REMARK SMILES IDX 25 1 19 2 24 3 10 4 23 5 8 6 27 7 17 8 11 9 16 10 9 11 15 12
REMARK SMILES IDX 18 13 26 14 12 15 14 16 13 17 6 18 7 19 3 20 2 21 1 22 4 23
REMARK SMILES IDX 5 24 20 25 22 26 21 27
REMARK H PARENT
ROOT
ATOM      1  N   UNL     1      98.039 124.595 117.678  1.00  0.00    -0.298 NA
ATOM      2  N   UNL     1      93.731 120.944 119.944  1.00  0.00    -0.287 N 
ATOM      3  C   UNL     1      97.254 123.506 118.309  1.00  0.00     0.091 C 
ATOM      4  C   UNL     1      97.647 122.101 117.775  1.00  0.00    -0.026 C 
ATOM      5  C   UNL     1      95.690 123.692 118.322  1.00  0.00     0.061 C 
ATOM      6  C   UNL     1      98.882 123.108 115.873  1.00  0.00     0.116 C 
ATOM      7  C   UNL     1      98.179 124.434 116.225  1.00  0.00     0.102 C 
ATOM      8  C   UNL     1      95.042 122.484 118.925  1.00  0.00    -0.019 A 
ATOM      9  C   UNL     1      97.006 120.954 118.452  1.00  0.00    -0.011 A 
ATOM     10  C   UNL     1      95.725 121.252 118.956  1.00  0.00     0.011 A 
ATOM     11  C   UNL     1      98.418 121.927 116.687  1.00  0.00    -0.007 C 
ATOM     12  C   UNL     1      94.929 120.296 119.589  1.00  0.00     0.056 A 
ATOM     13  C   UNL     1      93.829 122.277 119.524  1.00  0.00     0.099 A 
ATOM     14  C   UNL     1      97.591 125.934 118.036  1.00  0.00     0.106 C 
ATOM     15  C   UNL     1      97.493 119.658 118.598  1.00  0.00     0.009 A 
ATOM     16  C   UNL     1      95.431 118.989 119.734  1.00  0.00     0.027 A 
ATOM     17  C   UNL     1      96.713 118.695 119.235  1.00  0.00     0.003 A 
ENDROOT
BRANCH   6  18
ATOM     18  C   UNL     1      98.842 122.861 114.353  1.00  0.00     0.230 C 
ATOM     19  O   UNL     1      98.434 123.780 113.629  1.00  0.00    -0.274 OA
ATOM     20  N   UNL     1      99.213 121.637 113.795  1.00  0.00    -0.343 N 
BRANCH  20  21
ATOM     21  C   UNL     1      99.119 121.515 112.336  1.00  0.00     0.116 C 
ATOM     22  C   UNL     1     100.439 121.139 111.678  1.00  0.00     0.027 C 
ENDBRANCH  20  21
BRANCH  20  23
ATOM     23  C   UNL     1      99.747 120.475 114.517  1.00  0.00     0.116 C 
ATOM     24  C   UNL     1      99.025 119.177 114.192  1.00  0.00     0.027 C 
ENDBRANCH  20  23
ENDBRANCH   6  18
BRANCH   2  25
ATOM     25  C   UNL     1      92.579 120.455 120.602  1.00  0.00     0.227 C 
ATOM     26  O   UNL     1      91.580 120.190 119.940  1.00  0.00    -0.274 OA
ATOM     27  C   UNL     1      92.646 120.282 122.082  1.00  0.00     0.115 C 
ENDBRANCH   2  25
TORSDOF 4
ENDMDL
MODEL 7
REMARK VINA RESULT:    -4.516      5.985     10.322
REMARK INTER + INTRA:          -6.267
REMARK INTER:                  -5.738
REMARK INTRA:                  -0.529
REMARK UNBOUND:                -0.695
REMARK SMILES CCN(CC)C(=O)[C@@H]1C=C2c3cccc4c3c(cn4C(C)=O)C[C@H]2N(C)C1
REMARK SMILES IDX 25 1 19 2 24 3 10 4 23 5 8 6 27 7 17 8 11 9 16 10 9 11 15 12
REMARK SMILES IDX 18 13 26 14 12 15 14 16 13 17 6 18 7 19 3 20 2 21 1 22 4 23
REMARK SMILES IDX 5 24 20 25 22 26 21 27
REMARK H PARENT
ROOT
ATOM      1  N   UNL     1      97.209 124.935 117.428  1.00  0.00    -0.298 NA
ATOM      2  N   UNL     1     101.522 122.371 113.986  1.00  0.00    -0.287 N 
ATOM      3  C   UNL     1      97.998 124.139 116.455  1.00  0.00     0.091 C 
ATOM      4  C   UNL     1      97.654 122.625 116.504  1.00  0.00    -0.026 C 
ATOM      5  C   UNL     1      99.555 124.369 116.468  1.00  0.00     0.061 C 
ATOM      6  C   UNL     1      96.458 122.911 118.660  1.00  0.00     0.116 C 
ATOM      7  C   UNL     1      97.120 124.301 118.749  1.00  0.00     0.102 C 
ATOM      8  C   UNL     1     100.210 123.448 115.486  1.00  0.00    -0.019 A 
ATOM      9  C   UNL     1      98.298 121.786 115.472  1.00  0.00    -0.011 A 
ATOM     10  C   UNL     1      99.555 122.274 115.065  1.00  0.00     0.011 A 
ATOM     11  C   UNL     1      96.921 122.079 117.492  1.00  0.00    -0.007 C 
ATOM     12  C   UNL     1     100.352 121.605 114.135  1.00  0.00     0.056 A 
ATOM     13  C   UNL     1     101.408 123.488 114.824  1.00  0.00     0.099 A 
ATOM     14  C   UNL     1      97.615 126.331 117.521  1.00  0.00     0.106 C 
ATOM     15  C   UNL     1      97.835 120.596 114.918  1.00  0.00     0.009 A 
ATOM     16  C   UNL     1      99.874 120.403 113.578  1.00  0.00     0.027 A 
ATOM     17  C   UNL     1      98.616 119.921 113.981  1.00  0.00     0.003 A 
ENDROOT
BRANCH   6  18
ATOM     18  C   UNL     1      96.552 122.179 120.012  1.00  0.00     0.230 C 
ATOM     19  O   UNL     1      97.631 122.223 120.619  1.00  0.00    -0.274 OA
ATOM     20  N   UNL     1      95.480 121.453 120.533  1.00  0.00    -0.343 N 
BRANCH  20  21
ATOM     21  C   UNL     1      95.693 120.786 121.822  1.00  0.00     0.116 C 
ATOM     22  C   UNL     1      94.529 119.898 122.238  1.00  0.00     0.027 C 
ENDBRANCH  20  21
BRANCH  20  23
ATOM     23  C   UNL     1      94.138 121.340 119.950  1.00  0.00     0.116 C 
ATOM     24  C   UNL     1      93.248 122.538 120.240  1.00  0.00     0.027 C 
ENDBRANCH  20  23
ENDBRANCH   6  18
BRANCH   2  25
ATOM     25  C   UNL     1     102.664 122.163 113.177  1.00  0.00     0.227 C 
ATOM     26  O   UNL     1     103.779 122.250 113.683  1.00  0.00    -0.274 OA
ATOM     27  C   UNL     1     102.444 121.839 111.738  1.00  0.00     0.115 C 
ENDBRANCH   2  25
TORSDOF 4
ENDMDL
MODEL 8
REMARK VINA RESULT:    -4.423      4.573     11.265
REMARK INTER + INTRA:          -6.151
REMARK INTER:                  -5.672
REMARK INTRA:                  -0.479
REMARK UNBOUND:                -0.695
REMARK SMILES CCN(CC)C(=O)[C@@H]1C=C2c3cccc4c3c(cn4C(C)=O)C[C@H]2N(C)C1
REMARK SMILES IDX 25 1 19 2 24 3 10 4 23 5 8 6 27 7 17 8 11 9 16 10 9 11 15 12
REMARK SMILES IDX 18 13 26 14 12 15 14 16 13 17 6 18 7 19 3 20 2 21 1 22 4 23
REMARK SMILES IDX 5 24 20 25 22 26 21 27
REMARK H PARENT
ROOT
ATOM      1  N   UNL     1      97.610 121.893 117.885  1.00  0.00    -0.298 NA
ATOM      2  N   UNL     1      99.602 120.480 112.312  1.00  0.00    -0.287 N 
ATOM      3  C   UNL     1      98.393 121.665 116.645  1.00  0.00     0.091 C 
ATOM      4  C   UNL     1      99.224 122.909 116.227  1.00  0.00    -0.026 C 
ATOM      5  C   UNL     1      97.600 121.073 115.420  1.00  0.00     0.061 C 
ATOM      6  C   UNL     1      97.954 124.354 117.795  1.00  0.00     0.116 C 
ATOM      7  C   UNL     1      96.938 123.199 117.907  1.00  0.00     0.102 C 
ATOM      8  C   UNL     1      98.508 120.969 114.234  1.00  0.00    -0.019 A 
ATOM      9  C   UNL     1     100.135 122.717 115.080  1.00  0.00    -0.011 A 
ATOM     10  C   UNL     1      99.672 121.760 114.157  1.00  0.00     0.011 A 
ATOM     11  C   UNL     1      99.044 124.122 116.781  1.00  0.00    -0.007 C 
ATOM     12  C   UNL     1     100.358 121.461 112.979  1.00  0.00     0.056 A 
ATOM     13  C   UNL     1      98.478 120.202 113.100  1.00  0.00     0.099 A 
ATOM     14  C   UNL     1      96.699 120.807 118.220  1.00  0.00     0.106 C 
ATOM     15  C   UNL     1     101.326 123.384 114.805  1.00  0.00     0.009 A 
ATOM     16  C   UNL     1     101.563 122.139 112.711  1.00  0.00     0.027 A 
ATOM     17  C   UNL     1     102.028 123.091 113.637  1.00  0.00     0.003 A 
ENDROOT
BRANCH   6  18
ATOM     18  C   UNL     1      97.225 125.700 117.619  1.00  0.00     0.230 C 
ATOM     19  O   UNL     1      96.342 125.769 116.754  1.00  0.00    -0.274 OA
ATOM     20  N   UNL     1      97.562 126.824 118.373  1.00  0.00    -0.343 N 
BRANCH  20  21
ATOM     21  C   UNL     1      96.809 128.055 118.106  1.00  0.00     0.116 C 
ATOM     22  C   UNL     1      97.203 129.209 119.016  1.00  0.00     0.027 C 
ENDBRANCH  20  21
BRANCH  20  23
ATOM     23  C   UNL     1      98.557 126.885 119.452  1.00  0.00     0.116 C 
ATOM     24  C   UNL     1      98.058 126.311 120.769  1.00  0.00     0.027 C 
ENDBRANCH  20  23
ENDBRANCH   6  18
BRANCH   2  25
ATOM     25  C   UNL     1      99.828 119.822 111.081  1.00  0.00     0.227 C 
ATOM     26  O   UNL     1     100.978 119.544 110.753  1.00  0.00    -0.274 OA
ATOM     27  C   UNL     1      98.638 119.496 110.241  1.00  0.00     0.115 C 
ENDBRANCH   2  25
TORSDOF 4
ENDMDL
MODEL 9
REMARK VINA RESULT:    -4.321      3.369      8.263
REMARK INTER + INTRA:          -6.026
REMARK INTER:                  -5.431
REMARK INTRA:                  -0.595
REMARK UNBOUND:                -0.695
REMARK SMILES CCN(CC)C(=O)[C@@H]1C=C2c3cccc4c3c(cn4C(C)=O)C[C@H]2N(C)C1
REMARK SMILES IDX 25 1 19 2 24 3 10 4 23 5 8 6 27 7 17 8 11 9 16 10 9 11 15 12
REMARK SMILES IDX 18 13 26 14 12 15 14 16 13 17 6 18 7 19 3 20 2 21 1 22 4 23
REMARK SMILES IDX 5 24 20 25 22 26 21 27
REMARK H PARENT
ROOT
ATOM      1  N   UNL     1      96.697 128.212 118.901  1.00  0.00    -0.298 NA
ATOM      2  N   UNL     1      98.241 122.748 116.713  1.00  0.00    -0.287 N 
ATOM      3  C   UNL     1      96.825 126.770 118.574  1.00  0.00     0.091 C 
ATOM      4  C   UNL     1      96.895 125.875 119.841  1.00  0.00    -0.026 C 
ATOM      5  C   UNL     1      97.953 126.388 117.544  1.00  0.00     0.061 C 
ATOM      6  C   UNL     1      97.313 127.852 121.282  1.00  0.00     0.116 C 
ATOM      7  C   UNL     1      97.592 128.636 119.984  1.00  0.00     0.102 C 
ATOM      8  C   UNL     1      98.001 124.901 117.375  1.00  0.00    -0.019 A 
ATOM      9  C   UNL     1      96.887 124.418 119.599  1.00  0.00    -0.011 A 
ATOM     10  C   UNL     1      97.474 124.055 118.371  1.00  0.00     0.011 A 
ATOM     11  C   UNL     1      97.081 126.377 121.076  1.00  0.00    -0.007 C 
ATOM     12  C   UNL     1      97.610 122.725 117.971  1.00  0.00     0.056 A 
ATOM     13  C   UNL     1      98.469 124.089 116.378  1.00  0.00     0.099 A 
ATOM     14  C   UNL     1      96.786 129.094 117.745  1.00  0.00     0.106 C 
ATOM     15  C   UNL     1      96.422 123.408 120.438  1.00  0.00     0.009 A 
ATOM     16  C   UNL     1      97.135 121.711 118.825  1.00  0.00     0.027 A 
ATOM     17  C   UNL     1      96.544 122.075 120.048  1.00  0.00     0.003 A 
ENDROOT
BRANCH   6  18
ATOM     18  C   UNL     1      98.384 128.164 122.344  1.00  0.00     0.230 C 
ATOM     19  O   UNL     1      99.401 127.458 122.364  1.00  0.00    -0.274 OA
ATOM     20  N   UNL     1      98.214 129.179 123.286  1.00  0.00    -0.343 N 
BRANCH  20  21
ATOM     21  C   UNL     1      99.295 129.373 124.259  1.00  0.00     0.116 C 
ATOM     22  C   UNL     1      99.633 130.837 124.498  1.00  0.00     0.027 C 
ENDBRANCH  20  21
BRANCH  20  23
ATOM     23  C   UNL     1      97.085 130.115 123.366  1.00  0.00     0.116 C 
ATOM     24  C   UNL     1      96.024 129.700 124.373  1.00  0.00     0.027 C 
ENDBRANCH  20  23
ENDBRANCH   6  18
BRANCH   2  25
ATOM     25  C   UNL     1      98.623 121.692 115.854  1.00  0.00     0.227 C 
ATOM     26  O   UNL     1      97.954 120.662 115.838  1.00  0.00    -0.274 OA
ATOM     27  C   UNL     1      99.830 121.894 115.001  1.00  0.00     0.115 C 
ENDBRANCH   2  25
TORSDOF 4
ENDMDL
MODEL 10
REMARK VINA RESULT:    -4.300      6.151      9.084
REMARK INTER + INTRA:          -6.000
REMARK INTER:                  -6.081
REMARK INTRA:                   0.081
REMARK UNBOUND:                -0.695
REMARK SMILES CCN(CC)C(=O)[C@@H]1C=C2c3cccc4c3c(cn4C(C)=O)C[C@H]2N(C)C1
REMARK SMILES IDX 25 1 19 2 24 3 10 4 23 5 8 6 27 7 17 8 11 9 16 10 9 11 15 12
REMARK SMILES IDX 18 13 26 14 12 15 14 16 13 17 6 18 7 19 3 20 2 21 1 22 4 23
REMARK SMILES IDX 5 24 20 25 22 26 21 27
REMARK H PARENT
ROOT
ATOM      1  N   UNL     1      96.993 120.000 119.774  1.00  0.00    -0.298 NA
ATOM      2  N   UNL     1      99.169 123.717 115.476  1.00  0.00    -0.287 N 
ATOM      3  C   UNL     1      97.537 121.131 118.982  1.00  0.00     0.091 C 
ATOM      4  C   UNL     1      96.748 122.450 119.205  1.00  0.00    -0.026 C 
ATOM      5  C   UNL     1      97.769 120.859 117.449  1.00  0.00     0.061 C 
ATOM      6  C   UNL     1      94.890 121.219 120.296  1.00  0.00     0.116 C 
ATOM      7  C   UNL     1      95.527 119.929 119.740  1.00  0.00     0.102 C 
ATOM      8  C   UNL     1      98.250 122.109 116.781  1.00  0.00    -0.019 A 
ATOM      9  C   UNL     1      97.311 123.653 118.557  1.00  0.00    -0.011 A 
ATOM     10  C   UNL     1      98.006 123.368 117.366  1.00  0.00     0.011 A 
ATOM     11  C   UNL     1      95.560 122.488 119.836  1.00  0.00    -0.007 C 
ATOM     12  C   UNL     1      98.574 124.366 116.574  1.00  0.00     0.056 A 
ATOM     13  C   UNL     1      98.952 122.341 115.629  1.00  0.00     0.099 A 
ATOM     14  C   UNL     1      97.607 118.714 119.473  1.00  0.00     0.106 C 
ATOM     15  C   UNL     1      97.193 124.981 118.957  1.00  0.00     0.009 A 
ATOM     16  C   UNL     1      98.453 125.707 116.987  1.00  0.00     0.027 A 
ATOM     17  C   UNL     1      97.763 125.989 118.180  1.00  0.00     0.003 A 
ENDROOT
BRANCH   6  18
ATOM     18  C   UNL     1      93.367 121.211 120.071  1.00  0.00     0.230 C 
ATOM     19  O   UNL     1      92.826 122.276 119.744  1.00  0.00    -0.274 OA
ATOM     20  N   UNL     1      92.599 120.062 120.262  1.00  0.00    -0.343 N 
BRANCH  20  21
ATOM     21  C   UNL     1      91.155 120.180 120.032  1.00  0.00     0.116 C 
ATOM     22  C   UNL     1      90.529 118.909 119.475  1.00  0.00     0.027 C 
ENDBRANCH  20  21
BRANCH  20  23
ATOM     23  C   UNL     1      93.100 118.727 120.613  1.00  0.00     0.116 C 
ATOM     24  C   UNL     1      93.140 118.470 122.111  1.00  0.00     0.027 C 
ENDBRANCH  20  23
ENDBRANCH   6  18
BRANCH   2  25
ATOM     25  C   UNL     1      99.877 124.239 114.369  1.00  0.00     0.227 C 
ATOM     26  O   UNL     1      99.315 124.311 113.279  1.00  0.00    -0.274 OA
ATOM     27  C   UNL     1     101.283 124.683 114.593  1.00  0.00     0.115 C 
ENDBRANCH   2  25
TORSDOF 4
ENDMDL
MODEL 11
REMARK VINA RESULT:    -4.214      3.575      9.357
REMARK INTER + INTRA:          -5.894
REMARK INTER:                  -5.331
REMARK INTRA:                  -0.563
REMARK UNBOUND:                -0.695
REMARK SMILES CCN(CC)C(=O)[C@@H]1C=C2c3cccc4c3c(cn4C(C)=O)C[C@H]2N(C)C1
REMARK SMILES IDX 25 1 19 2 24 3 10 4 23 5 8 6 27 7 17 8 11 9 16 10 9 11 15 12
REMARK SMILES IDX 18 13 26 14 12 15 14 16 13 17 6 18 7 19 3 20 2 21 1 22 4 23
REMARK SMILES IDX 5 24 20 25 22 26 21 27
REMARK H PARENT
ROOT
ATOM      1  N   UNL     1      97.988 125.356 119.830  1.00  0.00    -0.298 NA
ATOM      2  N   UNL     1     100.396 124.743 114.276  1.00  0.00    -0.287 N 
ATOM      3  C   UNL     1      98.851 125.341 118.623  1.00  0.00     0.091 C 
ATOM      4  C   UNL     1      99.559 126.702 118.379  1.00  0.00    -0.026 C 
ATOM      5  C   UNL     1      98.191 124.797 117.301  1.00  0.00     0.061 C 
ATOM      6  C   UNL     1      98.060 127.835 119.999  1.00  0.00     0.116 C 
ATOM      7  C   UNL     1      97.175 126.574 119.938  1.00  0.00     0.102 C 
ATOM      8  C   UNL     1      99.161 124.913 116.167  1.00  0.00    -0.019 A 
ATOM      9  C   UNL     1     100.541 126.726 117.275  1.00  0.00    -0.011 A 
ATOM     10  C   UNL     1     100.232 125.826 116.237  1.00  0.00     0.011 A 
ATOM     11  C   UNL     1      99.217 127.826 119.035  1.00  0.00    -0.007 C 
ATOM     12  C   UNL     1     101.005 125.724 115.080  1.00  0.00     0.056 A 
ATOM     13  C   UNL     1      99.273 124.268 114.965  1.00  0.00     0.099 A 
ATOM     14  C   UNL     1      97.188 124.151 120.003  1.00  0.00     0.106 C 
ATOM     15  C   UNL     1     101.662 127.540 117.138  1.00  0.00     0.009 A 
ATOM     16  C   UNL     1     102.139 126.550 114.951  1.00  0.00     0.027 A 
ATOM     17  C   UNL     1     102.448 127.445 115.991  1.00  0.00     0.003 A 
ENDROOT
BRANCH   6  18
ATOM     18  C   UNL     1      97.196 129.108 119.912  1.00  0.00     0.230 C 
ATOM     19  O   UNL     1      96.816 129.472 118.790  1.00  0.00    -0.274 OA
ATOM     20  N   UNL     1      96.874 129.859 121.042  1.00  0.00    -0.343 N 
BRANCH  20  21
ATOM     21  C   UNL     1      96.058 131.060 120.832  1.00  0.00     0.116 C 
ATOM     22  C   UNL     1      95.173 131.401 122.023  1.00  0.00     0.027 C 
ENDBRANCH  20  21
BRANCH  20  23
ATOM     23  C   UNL     1      97.220 129.537 122.432  1.00  0.00     0.116 C 
ATOM     24  C   UNL     1      98.515 130.183 122.899  1.00  0.00     0.027 C 
ENDBRANCH  20  23
ENDBRANCH   6  18
BRANCH   2  25
ATOM     25  C   UNL     1     100.754 124.242 113.003  1.00  0.00     0.227 C 
ATOM     26  O   UNL     1     101.395 124.957 112.238  1.00  0.00    -0.274 OA
ATOM     27  C   UNL     1     100.329 122.854 112.659  1.00  0.00     0.115 C 
ENDBRANCH   2  25
TORSDOF 4
ENDMDL
MODEL 12
REMARK VINA RESULT:    -4.197      3.775      6.411
REMARK INTER + INTRA:          -5.873
REMARK INTER:                  -5.365
REMARK INTRA:                  -0.508
REMARK UNBOUND:                -0.695
REMARK SMILES CCN(CC)C(=O)[C@@H]1C=C2c3cccc4c3c(cn4C(C)=O)C[C@H]2N(C)C1
REMARK SMILES IDX 25 1 19 2 24 3 10 4 23 5 8 6 27 7 17 8 11 9 16 10 9 11 15 12
REMARK SMILES IDX 18 13 26 14 12 15 14 16 13 17 6 18 7 19 3 20 2 21 1 22 4 23
REMARK SMILES IDX 5 24 20 25 22 26 21 27
REMARK H PARENT
ROOT
ATOM      1  N   UNL     1     101.544 125.969 115.565  1.00  0.00    -0.298 NA
ATOM      2  N   UNL     1      97.520 128.504 119.361  1.00  0.00    -0.287 N 
ATOM      3  C   UNL     1     100.594 126.292 116.658  1.00  0.00     0.091 C 
ATOM      4  C   UNL     1      99.559 125.160 116.903  1.00  0.00    -0.026 C 
ATOM      5  C   UNL     1      99.891 127.699 116.576  1.00  0.00     0.061 C 
ATOM      6  C   UNL     1     100.153 124.076 114.752  1.00  0.00     0.116 C 
ATOM      7  C   UNL     1     100.887 125.382 114.389  1.00  0.00     0.102 C 
ATOM      8  C   UNL     1      98.918 127.843 117.705  1.00  0.00    -0.019 A 
ATOM      9  C   UNL     1      98.665 125.348 118.064  1.00  0.00    -0.011 A 
ATOM     10  C   UNL     1      98.402 126.702 118.351  1.00  0.00     0.011 A 
ATOM     11  C   UNL     1      99.388 124.135 116.048  1.00  0.00    -0.007 C 
ATOM     12  C   UNL     1      97.545 127.097 119.378  1.00  0.00     0.056 A 
ATOM     13  C   UNL     1      98.365 128.930 118.327  1.00  0.00     0.099 A 
ATOM     14  C   UNL     1     102.428 127.068 115.201  1.00  0.00     0.106 C 
ATOM     15  C   UNL     1      98.047 124.372 118.841  1.00  0.00     0.009 A 
ATOM     16  C   UNL     1      96.927 126.103 120.161  1.00  0.00     0.027 A 
ATOM     17  C   UNL     1      97.195 124.751 119.877  1.00  0.00     0.003 A 
ENDROOT
BRANCH   6  18
ATOM     18  C   UNL     1      99.309 123.582 113.561  1.00  0.00     0.230 C 
ATOM     19  O   UNL     1      98.727 124.432 112.874  1.00  0.00    -0.274 OA
ATOM     20  N   UNL     1      99.163 122.224 113.275  1.00  0.00    -0.343 N 
BRANCH  20  21
ATOM     21  C   UNL     1      98.321 121.873 112.125  1.00  0.00     0.116 C 
ATOM     22  C   UNL     1      98.402 120.401 111.749  1.00  0.00     0.027 C 
ENDBRANCH  20  21
BRANCH  20  23
ATOM     23  C   UNL     1      99.815 121.110 113.974  1.00  0.00     0.116 C 
ATOM     24  C   UNL     1      99.072 120.659 115.222  1.00  0.00     0.027 C 
ENDBRANCH  20  23
ENDBRANCH   6  18
BRANCH   2  25
ATOM     25  C   UNL     1      96.820 129.423 120.175  1.00  0.00     0.227 C 
ATOM     26  O   UNL     1      95.757 129.081 120.686  1.00  0.00    -0.274 OA
ATOM     27  C   UNL     1      97.424 130.772 120.374  1.00  0.00     0.115 C 
ENDBRANCH   2  25
TORSDOF 4
ENDMDL
MODEL 13
REMARK VINA RESULT:    -4.165      4.594      8.507
REMARK INTER + INTRA:          -5.833
REMARK INTER:                  -5.374
REMARK INTRA:                  -0.459
REMARK UNBOUND:                -0.695
REMARK SMILES CCN(CC)C(=O)[C@@H]1C=C2c3cccc4c3c(cn4C(C)=O)C[C@H]2N(C)C1
REMARK SMILES IDX 25 1 19 2 24 3 10 4 23 5 8 6 27 7 17 8 11 9 16 10 9 11 15 12
REMARK SMILES IDX 18 13 26 14 12 15 14 16 13 17 6 18 7 19 3 20 2 21 1 22 4 23
REMARK SMILES IDX 5 24 20 25 22 26 21 27
REMARK H PARENT
ROOT
ATOM      1  N   UNL     1      96.790 126.345 119.104  1.00  0.00    -0.298 NA
ATOM      2  N   UNL     1     101.606 126.341 115.385  1.00  0.00    -0.287 N 
ATOM      3  C   UNL     1      97.748 126.193 117.982  1.00  0.00     0.091 C 
ATOM      4  C   UNL     1      97.757 124.754 117.396  1.00  0.00    -0.026 C 
ATOM      5  C   UNL     1      99.213 126.710 118.241  1.00  0.00     0.061 C 
ATOM      6  C   UNL     1      96.508 123.888 119.357  1.00  0.00     0.116 C 
ATOM      7  C   UNL     1      96.835 125.225 120.053  1.00  0.00     0.102 C 
ATOM      8  C   UNL     1     100.069 126.423 117.047  1.00  0.00    -0.019 A 
ATOM      9  C   UNL     1      98.585 124.558 116.188  1.00  0.00    -0.011 A 
ATOM     10  C   UNL     1      99.702 125.414 116.134  1.00  0.00     0.011 A 
ATOM     11  C   UNL     1      97.159 123.717 118.009  1.00  0.00    -0.007 C 
ATOM     12  C   UNL     1     100.638 125.359 115.101  1.00  0.00     0.056 A 
ATOM     13  C   UNL     1     101.233 126.972 116.579  1.00  0.00     0.099 A 
ATOM     14  C   UNL     1      96.867 127.633 119.780  1.00  0.00     0.106 C 
ATOM     15  C   UNL     1      98.410 123.628 115.166  1.00  0.00     0.009 A 
ATOM     16  C   UNL     1     100.452 124.418 114.071  1.00  0.00     0.027 A 
ATOM     17  C   UNL     1      99.333 123.568 114.123  1.00  0.00     0.003 A 
ENDROOT
BRANCH   6  18
ATOM     18  C   UNL     1      96.753 122.706 120.314  1.00  0.00     0.230 C 
ATOM     19  O   UNL     1      97.907 122.526 120.726  1.00  0.00    -0.274 OA
ATOM     20  N   UNL     1      95.730 121.833 120.684  1.00  0.00    -0.343 N 
BRANCH  20  21
ATOM     21  C   UNL     1      96.087 120.734 121.589  1.00  0.00     0.116 C 
ATOM     22  C   UNL     1      94.935 119.774 121.851  1.00  0.00     0.027 C 
ENDBRANCH  20  21
BRANCH  20  23
ATOM     23  C   UNL     1      94.314 121.938 120.307  1.00  0.00     0.116 C 
ATOM     24  C   UNL     1      93.523 122.894 121.186  1.00  0.00     0.027 C 
ENDBRANCH  20  23
ENDBRANCH   6  18
BRANCH   2  25
ATOM     25  C   UNL     1     102.772 126.717 114.679  1.00  0.00     0.227 C 
ATOM     26  O   UNL     1     102.809 126.566 113.461  1.00  0.00    -0.274 OA
ATOM     27  C   UNL     1     103.904 127.288 115.465  1.00  0.00     0.115 C 
ENDBRANCH   2  25
TORSDOF 4
ENDMDL
MODEL 14
REMARK VINA RESULT:    -4.031      4.996      8.937
REMARK INTER + INTRA:          -5.668
REMARK INTER:                  -5.106
REMARK INTRA:                  -0.562
REMARK UNBOUND:                -0.695
REMARK SMILES CCN(CC)C(=O)[C@@H]1C=C2c3cccc4c3c(cn4C(C)=O)C[C@H]2N(C)C1
REMARK SMILES IDX 25 1 19 2 24 3 10 4 23 5 8 6 27 7 17 8 11 9 16 10 9 11 15 12
REMARK SMILES IDX 18 13 26 14 12 15 14 16 13 17 6 18 7 19 3 20 2 21 1 22 4 23
REMARK SMILES IDX 5 24 20 25 22 26 21 27
REMARK H PARENT
ROOT
ATOM      1  N   UNL     1      96.121 120.583 120.017  1.00  0.00    -0.298 NA
ATOM      2  N   UNL     1      98.741 123.575 115.412  1.00  0.00    -0.287 N 
ATOM      3  C   UNL     1      96.887 121.506 119.144  1.00  0.00     0.091 C 
ATOM      4  C   UNL     1      96.633 123.000 119.486  1.00  0.00    -0.026 C 
ATOM      5  C   UNL     1      96.777 121.251 117.594  1.00  0.00     0.061 C 
ATOM      6  C   UNL     1      94.658 122.405 120.866  1.00  0.00     0.116 C 
ATOM      7  C   UNL     1      94.730 121.007 120.219  1.00  0.00     0.102 C 
ATOM      8  C   UNL     1      97.544 122.301 116.853  1.00  0.00    -0.019 A 
ATOM      9  C   UNL     1      97.463 123.977 118.752  1.00  0.00    -0.011 A 
ATOM     10  C   UNL     1      97.832 123.538 117.465  1.00  0.00     0.011 A 
ATOM     11  C   UNL     1      95.639 123.399 120.300  1.00  0.00    -0.007 C 
ATOM     12  C   UNL     1      98.575 124.328 116.589  1.00  0.00     0.056 A 
ATOM     13  C   UNL     1      98.099 122.344 115.602  1.00  0.00     0.099 A 
ATOM     14  C   UNL     1      96.211 119.183 119.625  1.00  0.00     0.106 C 
ATOM     15  C   UNL     1      97.863 125.246 119.161  1.00  0.00     0.009 A 
ATOM     16  C   UNL     1      98.978 125.610 117.012  1.00  0.00     0.027 A 
ATOM     17  C   UNL     1      98.614 126.045 118.299  1.00  0.00     0.003 A 
ENDROOT
BRANCH   6  18
ATOM     18  C   UNL     1      93.206 122.918 120.888  1.00  0.00     0.230 C 
ATOM     19  O   UNL     1      92.521 122.757 119.868  1.00  0.00    -0.274 OA
ATOM     20  N   UNL     1      92.674 123.578 121.996  1.00  0.00    -0.343 N 
BRANCH  20  21
ATOM     21  C   UNL     1      91.283 124.034 121.894  1.00  0.00     0.116 C 
ATOM     22  C   UNL     1      91.028 125.350 122.616  1.00  0.00     0.027 C 
ENDBRANCH  20  21
BRANCH  20  23
ATOM     23  C   UNL     1      93.348 123.810 123.280  1.00  0.00     0.116 C 
ATOM     24  C   UNL     1      92.750 123.015 124.430  1.00  0.00     0.027 C 
ENDBRANCH  20  23
ENDBRANCH   6  18
BRANCH   2  25
ATOM     25  C   UNL     1      99.407 123.887 114.204  1.00  0.00     0.227 C 
ATOM     26  O   UNL     1      98.746 124.049 113.182  1.00  0.00    -0.274 OA
ATOM     27  C   UNL     1     100.893 124.007 114.243  1.00  0.00     0.115 C 
ENDBRANCH   2  25
TORSDOF 4
ENDMDL
MODEL 15
REMARK VINA RESULT:    -3.699      3.821      9.249
REMARK INTER + INTRA:          -5.258
REMARK INTER:                  -4.614
REMARK INTRA:                  -0.644
REMARK UNBOUND:                -0.695
REMARK SMILES CCN(CC)C(=O)[C@@H]1C=C2c3cccc4c3c(cn4C(C)=O)C[C@H]2N(C)C1
REMARK SMILES IDX 25 1 19 2 24 3 10 4 23 5 8 6 27 7 17 8 11 9 16 10 9 11 15 12
REMARK SMILES IDX 18 13 26 14 12 15 14 16 13 17 6 18 7 19 3 20 2 21 1 22 4 23
REMARK SMILES IDX 5 24 20 25 22 26 21 27
REMARK H PARENT
ROOT
ATOM      1  N   UNL     1      92.391 122.504 123.967  1.00  0.00    -0.298 NA
ATOM      2  N   UNL     1      95.097 120.050 119.100  1.00  0.00    -0.287 N 
ATOM      3  C   UNL     1      93.320 122.086 122.887  1.00  0.00     0.091 C 
ATOM      4  C   UNL     1      94.051 123.289 122.229  1.00  0.00    -0.026 C 
ATOM      5  C   UNL     1      92.728 121.115 121.798  1.00  0.00     0.061 C 
ATOM      6  C   UNL     1      92.474 124.892 123.279  1.00  0.00     0.116 C 
ATOM      7  C   UNL     1      91.584 123.677 123.606  1.00  0.00     0.102 C 
ATOM      8  C   UNL     1      93.761 120.845 120.748  1.00  0.00    -0.019 A 
ATOM      9  C   UNL     1      95.092 122.944 121.240  1.00  0.00    -0.011 A 
ATOM     10  C   UNL     1      94.834 121.738 120.559  1.00  0.00     0.011 A 
ATOM     11  C   UNL     1      93.683 124.566 122.441  1.00  0.00    -0.007 C 
ATOM     12  C   UNL     1      95.668 121.255 119.550  1.00  0.00     0.056 A 
ATOM     13  C   UNL     1      93.933 119.828 119.848  1.00  0.00     0.099 A 
ATOM     14  C   UNL     1      91.573 121.423 124.498  1.00  0.00     0.106 C 
ATOM     15  C   UNL     1      96.226 123.674 120.893  1.00  0.00     0.009 A 
ATOM     16  C   UNL     1      96.815 121.998 119.208  1.00  0.00     0.027 A 
ATOM     17  C   UNL     1      97.074 123.199 119.893  1.00  0.00     0.003 A 
ENDROOT
BRANCH   6  18
ATOM     18  C   UNL     1      91.627 126.047 122.713  1.00  0.00     0.230 C 
ATOM     19  O   UNL     1      90.529 125.767 122.213  1.00  0.00    -0.274 OA
ATOM     20  N   UNL     1      92.081 127.367 122.720  1.00  0.00    -0.343 N 
BRANCH  20  21
ATOM     21  C   UNL     1      91.193 128.379 122.139  1.00  0.00     0.116 C 
ATOM     22  C   UNL     1      91.168 129.681 122.927  1.00  0.00     0.027 C 
ENDBRANCH  20  21
BRANCH  20  23
ATOM     23  C   UNL     1      93.337 127.854 123.305  1.00  0.00     0.116 C 
ATOM     24  C   UNL     1      94.421 128.124 122.273  1.00  0.00     0.027 C 
ENDBRANCH  20  23
ENDBRANCH   6  18
BRANCH   2  25
ATOM     25  C   UNL     1      95.520 119.147 118.097  1.00  0.00     0.227 C 
ATOM     26  O   UNL     1      95.908 118.030 118.424  1.00  0.00    -0.274 OA
ATOM     27  C   UNL     1      95.464 119.610 116.680  1.00  0.00     0.115 C 
ENDBRANCH   2  25
TORSDOF 4
ENDMDL
MODEL 16
REMARK VINA RESULT:    -3.451      6.157      9.024
REMARK INTER + INTRA:          -4.952
REMARK INTER:                  -4.520
REMARK INTRA:                  -0.432
REMARK UNBOUND:                -0.695
REMARK SMILES CCN(CC)C(=O)[C@@H]1C=C2c3cccc4c3c(cn4C(C)=O)C[C@H]2N(C)C1
REMARK SMILES IDX 25 1 19 2 24 3 10 4 23 5 8 6 27 7 17 8 11 9 16 10 9 11 15 12
REMARK SMILES IDX 18 13 26 14 12 15 14 16 13 17 6 18 7 19 3 20 2 21 1 22 4 23
REMARK SMILES IDX 5 24 20 25 22 26 21 27
REMARK H PARENT
ROOT
ATOM      1  N   UNL     1      98.778 121.218 114.620  1.00  0.00    -0.298 NA
ATOM      2  N   UNL     1      96.443 121.098 120.238  1.00  0.00    -0.287 N 
ATOM      3  C   UNL     1      98.058 121.479 115.891  1.00  0.00     0.091 C 
ATOM      4  C   UNL     1      98.252 122.934 116.400  1.00  0.00    -0.026 C 
ATOM      5  C   UNL     1      98.291 120.436 117.049  1.00  0.00     0.061 C 
ATOM      6  C   UNL     1     100.130 123.295 114.820  1.00  0.00     0.116 C 
ATOM      7  C   UNL     1     100.140 121.767 114.610  1.00  0.00     0.102 C 
ATOM      8  C   UNL     1      97.557 120.874 118.278  1.00  0.00    -0.019 A 
ATOM      9  C   UNL     1      97.457 123.310 117.587  1.00  0.00    -0.011 A 
ATOM     10  C   UNL     1      97.196 122.226 118.448  1.00  0.00     0.011 A 
ATOM     11  C   UNL     1      99.173 123.767 115.882  1.00  0.00    -0.007 C 
ATOM     12  C   UNL     1      96.502 122.374 119.649  1.00  0.00     0.056 A 
ATOM     13  C   UNL     1      97.097 120.204 119.379  1.00  0.00     0.099 A 
ATOM     14  C   UNL     1      98.750 119.825 114.196  1.00  0.00     0.106 C 
ATOM     15  C   UNL     1      96.998 124.573 117.951  1.00  0.00     0.009 A 
ATOM     16  C   UNL     1      96.040 123.655 120.008  1.00  0.00     0.027 A 
ATOM     17  C   UNL     1      96.296 124.736 119.144  1.00  0.00     0.003 A 
ENDROOT
BRANCH   6  18
ATOM     18  C   UNL     1     101.565 123.825 115.005  1.00  0.00     0.230 C 
ATOM     19  O   UNL     1     102.394 123.073 115.536  1.00  0.00    -0.274 OA
ATOM     20  N   UNL     1     101.927 125.118 114.628  1.00  0.00    -0.343 N 
BRANCH  20  21
ATOM     21  C   UNL     1     103.319 125.516 114.868  1.00  0.00     0.116 C 
ATOM     22  C   UNL     1     103.457 126.947 115.367  1.00  0.00     0.027 C 
ENDBRANCH  20  21
BRANCH  20  23
ATOM     23  C   UNL     1     101.069 126.105 113.959  1.00  0.00     0.116 C 
ATOM     24  C   UNL     1     100.528 125.628 112.621  1.00  0.00     0.027 C 
ENDBRANCH  20  23
ENDBRANCH   6  18
BRANCH   2  25
ATOM     25  C   UNL     1      95.863 120.670 121.454  1.00  0.00     0.227 C 
ATOM     26  O   UNL     1      96.537 120.697 122.480  1.00  0.00    -0.274 OA
ATOM     27  C   UNL     1      94.445 120.207 121.421  1.00  0.00     0.115 C 
ENDBRANCH   2  25
TORSDOF 4
ENDMDL
MODEL 17
REMARK VINA RESULT:    -3.385      3.299      4.680
REMARK INTER + INTRA:          -4.871
REMARK INTER:                  -4.261
REMARK INTRA:                  -0.610
REMARK UNBOUND:                -0.695
REMARK SMILES CCN(CC)C(=O)[C@@H]1C=C2c3cccc4c3c(cn4C(C)=O)C[C@H]2N(C)C1
REMARK SMILES IDX 25 1 19 2 24 3 10 4 23 5 8 6 27 7 17 8 11 9 16 10 9 11 15 12
REMARK SMILES IDX 18 13 26 14 12 15 14 16 13 17 6 18 7 19 3 20 2 21 1 22 4 23
REMARK SMILES IDX 5 24 20 25 22 26 21 27
REMARK H PARENT
ROOT
ATOM      1  N   UNL     1      97.631 125.153 117.810  1.00  0.00    -0.298 NA
ATOM      2  N   UNL     1      97.322 130.461 120.769  1.00  0.00    -0.287 N 
ATOM      3  C   UNL     1      97.818 126.320 118.707  1.00  0.00     0.091 C 
ATOM      4  C   UNL     1      97.923 125.912 120.202  1.00  0.00    -0.026 C 
ATOM      5  C   UNL     1      96.813 127.516 118.513  1.00  0.00     0.061 C 
ATOM      6  C   UNL     1      97.071 123.637 119.698  1.00  0.00     0.116 C 
ATOM      7  C   UNL     1      96.650 124.188 118.322  1.00  0.00     0.102 C 
ATOM      8  C   UNL     1      97.087 128.578 119.532  1.00  0.00    -0.019 A 
ATOM      9  C   UNL     1      98.246 127.004 121.145  1.00  0.00    -0.011 A 
ATOM     10  C   UNL     1      97.768 128.260 120.725  1.00  0.00     0.011 A 
ATOM     11  C   UNL     1      97.616 124.678 120.641  1.00  0.00    -0.007 C 
ATOM     12  C   UNL     1      97.925 129.415 121.492  1.00  0.00     0.056 A 
ATOM     13  C   UNL     1      96.817 129.919 119.580  1.00  0.00     0.099 A 
ATOM     14  C   UNL     1      97.372 125.508 116.421  1.00  0.00     0.106 C 
ATOM     15  C   UNL     1      98.903 126.917 122.369  1.00  0.00     0.009 A 
ATOM     16  C   UNL     1      98.593 129.319 122.727  1.00  0.00     0.027 A 
ATOM     17  C   UNL     1      99.075 128.064 123.143  1.00  0.00     0.003 A 
ENDROOT
BRANCH   6  18
ATOM     18  C   UNL     1      95.943 122.783 120.308  1.00  0.00     0.230 C 
ATOM     19  O   UNL     1      94.831 123.311 120.446  1.00  0.00    -0.274 OA
ATOM     20  N   UNL     1      96.158 121.472 120.732  1.00  0.00    -0.343 N 
BRANCH  20  21
ATOM     21  C   UNL     1      95.011 120.763 121.312  1.00  0.00     0.116 C 
ATOM     22  C   UNL     1      94.328 119.822 120.330  1.00  0.00     0.027 C 
ENDBRANCH  20  21
BRANCH  20  23
ATOM     23  C   UNL     1      97.404 120.706 120.602  1.00  0.00     0.116 C 
ATOM     24  C   UNL     1      97.734 120.326 119.167  1.00  0.00     0.027 C 
ENDBRANCH  20  23
ENDBRANCH   6  18
BRANCH   2  25
ATOM     25  C   UNL     1      97.187 131.835 121.075  1.00  0.00     0.227 C 
ATOM     26  O   UNL     1      98.193 132.536 121.131  1.00  0.00    -0.274 OA
ATOM     27  C   UNL     1      95.811 132.361 121.311  1.00  0.00     0.115 C 
ENDBRANCH   2  25
TORSDOF 4
ENDMDL
MODEL 18
REMARK VINA RESULT:    -3.257      6.955     11.055
REMARK INTER + INTRA:          -4.713
REMARK INTER:                  -4.422
REMARK INTRA:                  -0.292
REMARK UNBOUND:                -0.695
REMARK SMILES CCN(CC)C(=O)[C@@H]1C=C2c3cccc4c3c(cn4C(C)=O)C[C@H]2N(C)C1
REMARK SMILES IDX 25 1 19 2 24 3 10 4 23 5 8 6 27 7 17 8 11 9 16 10 9 11 15 12
REMARK SMILES IDX 18 13 26 14 12 15 14 16 13 17 6 18 7 19 3 20 2 21 1 22 4 23
REMARK SMILES IDX 5 24 20 25 22 26 21 27
REMARK H PARENT
ROOT
ATOM      1  N   UNL     1      98.723 120.653 118.651  1.00  0.00    -0.298 NA
ATOM      2  N   UNL     1      99.963 120.715 112.694  1.00  0.00    -0.287 N 
ATOM      3  C   UNL     1      99.078 121.001 117.253  1.00  0.00     0.091 C 
ATOM      4  C   UNL     1      98.301 122.240 116.730  1.00  0.00    -0.026 C 
ATOM      5  C   UNL     1      99.036 119.821 116.211  1.00  0.00     0.061 C 
ATOM      6  C   UNL     1      96.712 122.115 118.632  1.00  0.00     0.116 C 
ATOM      7  C   UNL     1      97.277 120.707 118.906  1.00  0.00     0.102 C 
ATOM      8  C   UNL     1      99.348 120.344 114.843  1.00  0.00    -0.019 A 
ATOM      9  C   UNL     1      98.698 122.730 115.394  1.00  0.00    -0.011 A 
ATOM     10  C   UNL     1      99.175 121.711 114.547  1.00  0.00     0.011 A 
ATOM     11  C   UNL     1      97.247 122.764 117.382  1.00  0.00    -0.007 C 
ATOM     12  C   UNL     1      99.558 121.953 113.227  1.00  0.00     0.056 A 
ATOM     13  C   UNL     1      99.822 119.753 113.703  1.00  0.00     0.099 A 
ATOM     14  C   UNL     1      99.312 119.407 119.122  1.00  0.00     0.106 C 
ATOM     15  C   UNL     1      98.613 124.026 114.892  1.00  0.00     0.009 A 
ATOM     16  C   UNL     1      99.471 123.267 112.729  1.00  0.00     0.027 A 
ATOM     17  C   UNL     1      99.000 124.285 113.578  1.00  0.00     0.003 A 
ENDROOT
BRANCH   6  18
ATOM     18  C   UNL     1      95.173 122.105 118.710  1.00  0.00     0.230 C 
ATOM     19  O   UNL     1      94.541 122.132 117.645  1.00  0.00    -0.274 OA
ATOM     20  N   UNL     1      94.497 122.105 119.930  1.00  0.00    -0.343 N 
BRANCH  20  21
ATOM     21  C   UNL     1      93.031 122.111 119.879  1.00  0.00     0.116 C 
ATOM     22  C   UNL     1      92.411 120.772 120.252  1.00  0.00     0.027 C 
ENDBRANCH  20  21
BRANCH  20  23
ATOM     23  C   UNL     1      95.106 122.038 121.265  1.00  0.00     0.116 C 
ATOM     24  C   UNL     1      95.280 120.619 121.781  1.00  0.00     0.027 C 
ENDBRANCH  20  23
ENDBRANCH   6  18
BRANCH   2  25
ATOM     25  C   UNL     1     100.442 120.378 111.407  1.00  0.00     0.227 C 
ATOM     26  O   UNL     1     101.625 120.566 111.141  1.00  0.00    -0.274 OA
ATOM     27  C   UNL     1      99.468 119.801 110.435  1.00  0.00     0.115 C 
ENDBRANCH   2  25
TORSDOF 4
ENDMDL
MODEL 19
REMARK VINA RESULT:    -2.934      3.508      9.156
REMARK INTER + INTRA:          -4.314
REMARK INTER:                  -3.721
REMARK INTRA:                  -0.593
REMARK UNBOUND:                -0.695
REMARK SMILES CCN(CC)C(=O)[C@@H]1C=C2c3cccc4c3c(cn4C(C)=O)C[C@H]2N(C)C1
REMARK SMILES IDX 25 1 19 2 24 3 10 4 23 5 8 6 27 7 17 8 11 9 16 10 9 11 15 12
REMARK SMILES IDX 18 13 26 14 12 15 14 16 13 17 6 18 7 19 3 20 2 21 1 22 4 23
REMARK SMILES IDX 5 24 20 25 22 26 21 27
REMARK H PARENT
ROOT
ATOM      1  N   UNL     1      98.906 127.710 117.128  1.00  0.00    -0.298 NA
ATOM      2  N   UNL     1      99.436 121.907 115.377  1.00  0.00    -0.287 N 
ATOM      3  C   UNL     1      98.697 126.291 116.747  1.00  0.00     0.091 C 
ATOM      4  C   UNL     1      97.833 125.517 117.780  1.00  0.00    -0.026 C 
ATOM      5  C   UNL     1      99.989 125.477 116.361  1.00  0.00     0.061 C 
ATOM      6  C   UNL     1      98.107 127.330 119.451  1.00  0.00     0.116 C 
ATOM      7  C   UNL     1      99.231 127.880 118.550  1.00  0.00     0.102 C 
ATOM      8  C   UNL     1      99.622 124.054 116.073  1.00  0.00    -0.019 A 
ATOM      9  C   UNL     1      97.468 124.135 117.405  1.00  0.00    -0.011 A 
ATOM     10  C   UNL     1      98.428 123.509 116.586  1.00  0.00     0.011 A 
ATOM     11  C   UNL     1      97.538 126.012 118.996  1.00  0.00    -0.007 C 
ATOM     12  C   UNL     1      98.299 122.188 116.157  1.00  0.00     0.056 A 
ATOM     13  C   UNL     1     100.225 123.064 115.346  1.00  0.00     0.099 A 
ATOM     14  C   UNL     1      99.838 128.425 116.268  1.00  0.00     0.106 C 
ATOM     15  C   UNL     1      96.348 123.405 117.793  1.00  0.00     0.009 A 
ATOM     16  C   UNL     1      97.161 121.458 116.553  1.00  0.00     0.027 A 
ATOM     17  C   UNL     1      96.201 122.086 117.366  1.00  0.00     0.003 A 
ENDROOT
BRANCH   6  18
ATOM     18  C   UNL     1      98.547 127.334 120.928  1.00  0.00     0.230 C 
ATOM     19  O   UNL     1      99.070 126.305 121.377  1.00  0.00    -0.274 OA
ATOM     20  N   UNL     1      98.336 128.437 121.757  1.00  0.00    -0.343 N 
BRANCH  20  21
ATOM     21  C   UNL     1      98.783 128.317 123.149  1.00  0.00     0.116 C 
ATOM     22  C   UNL     1      99.019 129.662 123.822  1.00  0.00     0.027 C 
ENDBRANCH  20  21
BRANCH  20  23
ATOM     23  C   UNL     1      97.763 129.729 121.360  1.00  0.00     0.116 C 
ATOM     24  C   UNL     1      96.246 129.774 121.453  1.00  0.00     0.027 C 
ENDBRANCH  20  23
ENDBRANCH   6  18
BRANCH   2  25
ATOM     25  C   UNL     1      99.821 120.726 114.701  1.00  0.00     0.227 C 
ATOM     26  O   UNL     1      99.675 119.642 115.259  1.00  0.00    -0.274 OA
ATOM     27  C   UNL     1     100.385 120.867 113.327  1.00  0.00     0.115 C 
ENDBRANCH   2  25
TORSDOF 4
ENDMDL
