MODEL 1
REMARK VINA RESULT:   -10.487      0.000      0.000
REMARK INTER + INTRA:         -13.530
REMARK INTER:                 -12.940
REMARK INTRA:                  -0.590
REMARK UNBOUND:                -0.590
REMARK SMILES CCN(CC)C(=O)[C@@H]1C=C2c3cccc4c3c(cn4C(C)=O)C[C@H]2N(C)C1
REMARK SMILES IDX 25 1 19 2 24 3 10 4 23 5 8 6 27 7 17 8 11 9 16 10 9 11 15 12
REMARK SMILES IDX 18 13 26 14 12 15 14 16 13 17 6 18 7 19 3 20 2 21 1 22 4 23
REMARK SMILES IDX 5 24 20 25 22 26 21 27
REMARK H PARENT
ROOT
ATOM      1  N   UNL     1     -29.125 -11.331 146.497  1.00  0.00    -0.298 NA
ATOM      2  N   UNL     1     -24.692 -15.296 145.209  1.00  0.00    -0.287 N 
ATOM      3  C   UNL     1     -27.842 -12.027 146.230  1.00  0.00     0.091 C 
ATOM      4  C   UNL     1     -26.944 -11.258 145.223  1.00  0.00    -0.026 C 
ATOM      5  C   UNL     1     -27.943 -13.552 145.852  1.00  0.00     0.061 C 
ATOM      6  C   UNL     1     -28.842  -9.806 144.554  1.00  0.00     0.116 C 
ATOM      7  C   UNL     1     -29.759 -10.811 145.279  1.00  0.00     0.102 C 
ATOM      8  C   UNL     1     -26.579 -14.089 145.546  1.00  0.00    -0.019 A 
ATOM      9  C   UNL     1     -25.593 -11.817 145.009  1.00  0.00    -0.011 A 
ATOM     10  C   UNL     1     -25.538 -13.215 145.172  1.00  0.00     0.011 A 
ATOM     11  C   UNL     1     -27.396 -10.224 144.490  1.00  0.00    -0.007 C 
ATOM     12  C   UNL     1     -24.368 -13.947 144.969  1.00  0.00     0.056 A 
ATOM     13  C   UNL     1     -26.048 -15.350 145.556  1.00  0.00     0.099 A 
ATOM     14  C   UNL     1     -30.058 -12.097 147.312  1.00  0.00     0.106 C 
ATOM     15  C   UNL     1     -24.432 -11.145 144.638  1.00  0.00     0.009 A 
ATOM     16  C   UNL     1     -23.198 -13.259 144.596  1.00  0.00     0.027 A 
ATOM     17  C   UNL     1     -23.253 -11.862 144.439  1.00  0.00     0.003 A 
ENDROOT
BRANCH   6  18
ATOM     18  C   UNL     1     -29.434  -9.424 143.184  1.00  0.00     0.230 C 
ATOM     19  O   UNL     1     -30.057 -10.294 142.562  1.00  0.00    -0.274 OA
ATOM     20  N   UNL     1     -29.251  -8.156 142.630  1.00  0.00    -0.343 N 
BRANCH  20  21
ATOM     21  C   UNL     1     -29.848  -7.914 141.312  1.00  0.00     0.116 C 
ATOM     22  C   UNL     1     -28.910  -8.238 140.158  1.00  0.00     0.027 C 
ENDBRANCH  20  21
BRANCH  20  23
ATOM     23  C   UNL     1     -28.570  -7.019 143.261  1.00  0.00     0.116 C 
ATOM     24  C   UNL     1     -29.009  -5.670 142.711  1.00  0.00     0.027 C 
ENDBRANCH  20  23
ENDBRANCH   6  18
BRANCH   2  25
ATOM     25  C   UNL     1     -23.893 -16.461 145.147  1.00  0.00     0.227 C 
ATOM     26  O   UNL     1     -23.263 -16.700 144.121  1.00  0.00    -0.274 OA
ATOM     27  C   UNL     1     -23.858 -17.342 146.351  1.00  0.00     0.115 C 
ENDBRANCH   2  25
TORSDOF 4
ENDMDL
MODEL 2
REMARK VINA RESULT:    -9.952      1.039      1.543
REMARK INTER + INTRA:         -12.869
REMARK INTER:                 -13.123
REMARK INTRA:                   0.255
REMARK UNBOUND:                -0.590
REMARK SMILES CCN(CC)C(=O)[C@@H]1C=C2c3cccc4c3c(cn4C(C)=O)C[C@H]2N(C)C1
REMARK SMILES IDX 25 1 19 2 24 3 10 4 23 5 8 6 27 7 17 8 11 9 16 10 9 11 15 12
REMARK SMILES IDX 18 13 26 14 12 15 14 16 13 17 6 18 7 19 3 20 2 21 1 22 4 23
REMARK SMILES IDX 5 24 20 25 22 26 21 27
REMARK H PARENT
ROOT
ATOM      1  N   UNL     1     -29.245 -11.775 146.999  1.00  0.00    -0.298 NA
ATOM      2  N   UNL     1     -24.750 -15.472 145.225  1.00  0.00    -0.287 N 
ATOM      3  C   UNL     1     -27.953 -12.404 146.629  1.00  0.00     0.091 C 
ATOM      4  C   UNL     1     -27.115 -11.524 145.661  1.00  0.00    -0.026 C 
ATOM      5  C   UNL     1     -28.024 -13.894 146.126  1.00  0.00     0.061 C 
ATOM      6  C   UNL     1     -29.078 -10.083 145.185  1.00  0.00     0.116 C 
ATOM      7  C   UNL     1     -29.939 -11.174 145.852  1.00  0.00     0.102 C 
ATOM      8  C   UNL     1     -26.658 -14.359 145.728  1.00  0.00    -0.019 A 
ATOM      9  C   UNL     1     -25.758 -12.020 145.355  1.00  0.00    -0.011 A 
ATOM     10  C   UNL     1     -25.657 -13.424 145.395  1.00  0.00     0.011 A 
ATOM     11  C   UNL     1     -27.624 -10.447 145.035  1.00  0.00    -0.007 C 
ATOM     12  C   UNL     1     -24.474 -14.099 145.090  1.00  0.00     0.056 A 
ATOM     13  C   UNL     1     -26.090 -15.600 145.613  1.00  0.00     0.099 A 
ATOM     14  C   UNL     1     -30.125 -12.636 147.777  1.00  0.00     0.106 C 
ATOM     15  C   UNL     1     -24.631 -11.282 145.002  1.00  0.00     0.009 A 
ATOM     16  C   UNL     1     -23.339 -13.344 144.738  1.00  0.00     0.027 A 
ATOM     17  C   UNL     1     -23.440 -11.942 144.703  1.00  0.00     0.003 A 
ENDROOT
BRANCH   6  18
ATOM     18  C   UNL     1     -29.731  -9.605 143.874  1.00  0.00     0.230 C 
ATOM     19  O   UNL     1     -30.819  -9.018 143.951  1.00  0.00    -0.274 OA
ATOM     20  N   UNL     1     -29.150  -9.851 142.629  1.00  0.00    -0.343 N 
BRANCH  20  21
ATOM     21  C   UNL     1     -29.872  -9.361 141.449  1.00  0.00     0.116 C 
ATOM     22  C   UNL     1     -29.377  -8.008 140.960  1.00  0.00     0.027 C 
ENDBRANCH  20  21
BRANCH  20  23
ATOM     23  C   UNL     1     -27.855 -10.498 142.383  1.00  0.00     0.116 C 
ATOM     24  C   UNL     1     -27.828 -11.333 141.113  1.00  0.00     0.027 C 
ENDBRANCH  20  23
ENDBRANCH   6  18
BRANCH   2  25
ATOM     25  C   UNL     1     -23.920 -16.602 145.037  1.00  0.00     0.227 C 
ATOM     26  O   UNL     1     -23.338 -16.744 143.965  1.00  0.00    -0.274 OA
ATOM     27  C   UNL     1     -23.795 -17.566 146.168  1.00  0.00     0.115 C 
ENDBRANCH   2  25
TORSDOF 4
ENDMDL
MODEL 3
REMARK VINA RESULT:    -9.875      4.349      7.432
REMARK INTER + INTRA:         -12.774
REMARK INTER:                 -12.629
REMARK INTRA:                  -0.145
REMARK UNBOUND:                -0.590
REMARK SMILES CCN(CC)C(=O)[C@@H]1C=C2c3cccc4c3c(cn4C(C)=O)C[C@H]2N(C)C1
REMARK SMILES IDX 25 1 19 2 24 3 10 4 23 5 8 6 27 7 17 8 11 9 16 10 9 11 15 12
REMARK SMILES IDX 18 13 26 14 12 15 14 16 13 17 6 18 7 19 3 20 2 21 1 22 4 23
REMARK SMILES IDX 5 24 20 25 22 26 21 27
REMARK H PARENT
ROOT
ATOM      1  N   UNL     1     -27.790 -16.217 146.044  1.00  0.00    -0.298 NA
ATOM      2  N   UNL     1     -30.787 -15.810 151.324  1.00  0.00    -0.287 N 
ATOM      3  C   UNL     1     -28.741 -15.934 147.147  1.00  0.00     0.091 C 
ATOM      4  C   UNL     1     -29.118 -14.430 147.239  1.00  0.00    -0.026 C 
ATOM      5  C   UNL     1     -28.359 -16.512 148.561  1.00  0.00     0.061 C 
ATOM      6  C   UNL     1     -27.244 -13.811 145.735  1.00  0.00     0.116 C 
ATOM      7  C   UNL     1     -26.700 -15.236 145.961  1.00  0.00     0.102 C 
ATOM      8  C   UNL     1     -29.375 -16.084 149.574  1.00  0.00    -0.019 A 
ATOM      9  C   UNL     1     -30.165 -14.089 148.225  1.00  0.00    -0.011 A 
ATOM     10  C   UNL     1     -30.183 -14.953 149.338  1.00  0.00     0.011 A 
ATOM     11  C   UNL     1     -28.455 -13.473 146.565  1.00  0.00    -0.007 C 
ATOM     12  C   UNL     1     -31.062 -14.779 150.407  1.00  0.00     0.056 A 
ATOM     13  C   UNL     1     -29.752 -16.588 150.789  1.00  0.00     0.099 A 
ATOM     14  C   UNL     1     -27.292 -17.585 146.025  1.00  0.00     0.106 C 
ATOM     15  C   UNL     1     -31.064 -13.027 148.194  1.00  0.00     0.009 A 
ATOM     16  C   UNL     1     -31.970 -13.703 150.365  1.00  0.00     0.027 A 
ATOM     17  C   UNL     1     -31.955 -12.845 149.251  1.00  0.00     0.003 A 
ENDROOT
BRANCH   6  18
ATOM     18  C   UNL     1     -26.111 -12.774 145.849  1.00  0.00     0.230 C 
ATOM     19  O   UNL     1     -26.136 -11.995 146.812  1.00  0.00    -0.274 OA
ATOM     20  N   UNL     1     -25.102 -12.676 144.890  1.00  0.00    -0.343 N 
BRANCH  20  21
ATOM     21  C   UNL     1     -24.085 -11.639 145.097  1.00  0.00     0.116 C 
ATOM     22  C   UNL     1     -22.685 -12.083 144.698  1.00  0.00     0.027 C 
ENDBRANCH  20  21
BRANCH  20  23
ATOM     23  C   UNL     1     -24.922 -13.547 143.722  1.00  0.00     0.116 C 
ATOM     24  C   UNL     1     -26.038 -13.423 142.696  1.00  0.00     0.027 C 
ENDBRANCH  20  23
ENDBRANCH   6  18
BRANCH   2  25
ATOM     25  C   UNL     1     -31.373 -16.111 152.575  1.00  0.00     0.227 C 
ATOM     26  O   UNL     1     -32.530 -15.764 152.793  1.00  0.00    -0.274 OA
ATOM     27  C   UNL     1     -30.542 -16.848 153.570  1.00  0.00     0.115 C 
ENDBRANCH   2  25
TORSDOF 4
ENDMDL
MODEL 4
REMARK VINA RESULT:    -9.681      1.628      8.232
REMARK INTER + INTRA:         -12.535
REMARK INTER:                 -11.891
REMARK INTRA:                  -0.644
REMARK UNBOUND:                -0.590
REMARK SMILES CCN(CC)C(=O)[C@@H]1C=C2c3cccc4c3c(cn4C(C)=O)C[C@H]2N(C)C1
REMARK SMILES IDX 25 1 19 2 24 3 10 4 23 5 8 6 27 7 17 8 11 9 16 10 9 11 15 12
REMARK SMILES IDX 18 13 26 14 12 15 14 16 13 17 6 18 7 19 3 20 2 21 1 22 4 23
REMARK SMILES IDX 5 24 20 25 22 26 21 27
REMARK H PARENT
ROOT
ATOM      1  N   UNL     1     -24.073 -13.171 145.532  1.00  0.00    -0.298 NA
ATOM      2  N   UNL     1     -29.014 -10.207 143.574  1.00  0.00    -0.287 N 
ATOM      3  C   UNL     1     -25.355 -12.437 145.386  1.00  0.00     0.091 C 
ATOM      4  C   UNL     1     -26.517 -13.104 146.171  1.00  0.00    -0.026 C 
ATOM      5  C   UNL     1     -25.791 -12.083 143.915  1.00  0.00     0.061 C 
ATOM      6  C   UNL     1     -25.191 -15.178 146.481  1.00  0.00     0.116 C 
ATOM      7  C   UNL     1     -24.229 -14.626 145.410  1.00  0.00     0.102 C 
ATOM      8  C   UNL     1     -27.129 -11.411 143.933  1.00  0.00    -0.019 A 
ATOM      9  C   UNL     1     -27.793 -12.358 146.187  1.00  0.00    -0.011 A 
ATOM     10  C   UNL     1     -27.997 -11.581 145.031  1.00  0.00     0.011 A 
ATOM     11  C   UNL     1     -26.423 -14.338 146.699  1.00  0.00    -0.007 C 
ATOM     12  C   UNL     1     -29.159 -10.837 144.824  1.00  0.00     0.056 A 
ATOM     13  C   UNL     1     -27.767 -10.578 143.054  1.00  0.00     0.099 A 
ATOM     14  C   UNL     1     -23.001 -12.666 144.686  1.00  0.00     0.106 C 
ATOM     15  C   UNL     1     -28.789 -12.378 147.159  1.00  0.00     0.009 A 
ATOM     16  C   UNL     1     -30.160 -10.860 145.814  1.00  0.00     0.027 A 
ATOM     17  C   UNL     1     -29.952 -11.633 146.971  1.00  0.00     0.003 A 
ENDROOT
BRANCH   6  18
ATOM     18  C   UNL     1     -25.498 -16.665 146.218  1.00  0.00     0.230 C 
ATOM     19  O   UNL     1     -26.565 -16.943 145.656  1.00  0.00    -0.274 OA
ATOM     20  N   UNL     1     -24.632 -17.680 146.628  1.00  0.00    -0.343 N 
BRANCH  20  21
ATOM     21  C   UNL     1     -25.039 -19.059 146.336  1.00  0.00     0.116 C 
ATOM     22  C   UNL     1     -23.873 -19.961 145.956  1.00  0.00     0.027 C 
ENDBRANCH  20  21
BRANCH  20  23
ATOM     23  C   UNL     1     -23.324 -17.504 147.270  1.00  0.00     0.116 C 
ATOM     24  C   UNL     1     -23.397 -17.449 148.788  1.00  0.00     0.027 C 
ENDBRANCH  20  23
ENDBRANCH   6  18
BRANCH   2  25
ATOM     25  C   UNL     1     -29.885  -9.342 142.872  1.00  0.00     0.227 C 
ATOM     26  O   UNL     1     -30.937  -9.788 142.424  1.00  0.00    -0.274 OA
ATOM     27  C   UNL     1     -29.470  -7.917 142.717  1.00  0.00     0.115 C 
ENDBRANCH   2  25
TORSDOF 4
ENDMDL
MODEL 5
REMARK VINA RESULT:    -9.280      2.925      7.525
REMARK INTER + INTRA:         -12.040
REMARK INTER:                 -11.928
REMARK INTRA:                  -0.112
REMARK UNBOUND:                -0.590
REMARK SMILES CCN(CC)C(=O)[C@@H]1C=C2c3cccc4c3c(cn4C(C)=O)C[C@H]2N(C)C1
REMARK SMILES IDX 25 1 19 2 24 3 10 4 23 5 8 6 27 7 17 8 11 9 16 10 9 11 15 12
REMARK SMILES IDX 18 13 26 14 12 15 14 16 13 17 6 18 7 19 3 20 2 21 1 22 4 23
REMARK SMILES IDX 5 24 20 25 22 26 21 27
REMARK H PARENT
ROOT
ATOM      1  N   UNL     1     -29.242 -10.469 144.553  1.00  0.00    -0.298 NA
ATOM      2  N   UNL     1     -28.566  -8.952 138.699  1.00  0.00    -0.287 N 
ATOM      3  C   UNL     1     -29.096 -10.436 143.077  1.00  0.00     0.091 C 
ATOM      4  C   UNL     1     -28.025 -11.436 142.560  1.00  0.00    -0.026 C 
ATOM      5  C   UNL     1     -28.905  -9.014 142.428  1.00  0.00     0.061 C 
ATOM      6  C   UNL     1     -27.134 -11.752 144.854  1.00  0.00     0.116 C 
ATOM      7  C   UNL     1     -27.953 -10.509 145.256  1.00  0.00     0.102 C 
ATOM      8  C   UNL     1     -28.703  -9.155 140.951  1.00  0.00    -0.019 A 
ATOM      9  C   UNL     1     -27.917 -11.560 141.092  1.00  0.00    -0.011 A 
ATOM     10  C   UNL     1     -28.252 -10.375 140.408  1.00  0.00     0.011 A 
ATOM     11  C   UNL     1     -27.159 -12.060 143.380  1.00  0.00    -0.007 C 
ATOM     12  C   UNL     1     -28.171 -10.263 139.020  1.00  0.00     0.056 A 
ATOM     13  C   UNL     1     -28.882  -8.299 139.898  1.00  0.00     0.099 A 
ATOM     14  C   UNL     1     -30.120  -9.437 145.086  1.00  0.00     0.106 C 
ATOM     15  C   UNL     1     -27.496 -12.660 140.349  1.00  0.00     0.009 A 
ATOM     16  C   UNL     1     -27.747 -11.382 138.277  1.00  0.00     0.027 A 
ATOM     17  C   UNL     1     -27.419 -12.567 138.961  1.00  0.00     0.003 A 
ENDROOT
BRANCH   6  18
ATOM     18  C   UNL     1     -25.713 -11.678 145.443  1.00  0.00     0.230 C 
ATOM     19  O   UNL     1     -25.491 -10.819 146.309  1.00  0.00    -0.274 OA
ATOM     20  N   UNL     1     -24.687 -12.514 145.002  1.00  0.00    -0.343 N 
BRANCH  20  21
ATOM     21  C   UNL     1     -23.371 -12.340 145.626  1.00  0.00     0.116 C 
ATOM     22  C   UNL     1     -22.274 -11.992 144.630  1.00  0.00     0.027 C 
ENDBRANCH  20  21
BRANCH  20  23
ATOM     23  C   UNL     1     -24.806 -13.595 144.015  1.00  0.00     0.116 C 
ATOM     24  C   UNL     1     -24.657 -14.983 144.617  1.00  0.00     0.027 C 
ENDBRANCH  20  23
ENDBRANCH   6  18
BRANCH   2  25
ATOM     25  C   UNL     1     -28.669  -8.299 137.449  1.00  0.00     0.227 C 
ATOM     26  O   UNL     1     -27.921  -7.358 137.202  1.00  0.00    -0.274 OA
ATOM     27  C   UNL     1     -29.691  -8.803 136.486  1.00  0.00     0.115 C 
ENDBRANCH   2  25
TORSDOF 4
ENDMDL
MODEL 6
REMARK VINA RESULT:    -9.053      4.415      6.971
REMARK INTER + INTRA:         -11.760
REMARK INTER:                 -11.276
REMARK INTRA:                  -0.484
REMARK UNBOUND:                -0.590
REMARK SMILES CCN(CC)C(=O)[C@@H]1C=C2c3cccc4c3c(cn4C(C)=O)C[C@H]2N(C)C1
REMARK SMILES IDX 25 1 19 2 24 3 10 4 23 5 8 6 27 7 17 8 11 9 16 10 9 11 15 12
REMARK SMILES IDX 18 13 26 14 12 15 14 16 13 17 6 18 7 19 3 20 2 21 1 22 4 23
REMARK SMILES IDX 5 24 20 25 22 26 21 27
REMARK H PARENT
ROOT
ATOM      1  N   UNL     1     -24.935 -16.725 145.901  1.00  0.00    -0.298 NA
ATOM      2  N   UNL     1     -27.056 -17.938 151.474  1.00  0.00    -0.287 N 
ATOM      3  C   UNL     1     -25.756 -17.002 147.106  1.00  0.00     0.091 C 
ATOM      4  C   UNL     1     -26.913 -15.982 147.287  1.00  0.00    -0.026 C 
ATOM      5  C   UNL     1     -24.967 -17.212 148.452  1.00  0.00     0.061 C 
ATOM      6  C   UNL     1     -25.900 -14.451 145.618  1.00  0.00     0.116 C 
ATOM      7  C   UNL     1     -24.618 -15.300 145.739  1.00  0.00     0.102 C 
ATOM      8  C   UNL     1     -25.933 -17.410 149.579  1.00  0.00    -0.019 A 
ATOM      9  C   UNL     1     -27.857 -16.271 148.387  1.00  0.00    -0.011 A 
ATOM     10  C   UNL     1     -27.261 -16.953 149.466  1.00  0.00     0.011 A 
ATOM     11  C   UNL     1     -26.992 -14.840 146.580  1.00  0.00    -0.007 C 
ATOM     12  C   UNL     1     -27.965 -17.279 150.625  1.00  0.00     0.056 A 
ATOM     13  C   UNL     1     -25.825 -18.000 150.809  1.00  0.00     0.099 A 
ATOM     14  C   UNL     1     -23.749 -17.562 145.785  1.00  0.00     0.106 C 
ATOM     15  C   UNL     1     -29.199 -15.915 148.485  1.00  0.00     0.009 A 
ATOM     16  C   UNL     1     -29.324 -16.918 150.714  1.00  0.00     0.027 A 
ATOM     17  C   UNL     1     -29.918 -16.242 149.634  1.00  0.00     0.003 A 
ENDROOT
BRANCH   6  18
ATOM     18  C   UNL     1     -25.559 -12.949 145.649  1.00  0.00     0.230 C 
ATOM     19  O   UNL     1     -24.874 -12.532 146.593  1.00  0.00    -0.274 OA
ATOM     20  N   UNL     1     -26.028 -12.067 144.675  1.00  0.00    -0.343 N 
BRANCH  20  21
ATOM     21  C   UNL     1     -25.651 -10.656 144.818  1.00  0.00     0.116 C 
ATOM     22  C   UNL     1     -26.847  -9.718 144.883  1.00  0.00     0.027 C 
ENDBRANCH  20  21
BRANCH  20  23
ATOM     23  C   UNL     1     -26.815 -12.418 143.486  1.00  0.00     0.116 C 
ATOM     24  C   UNL     1     -26.107 -13.391 142.557  1.00  0.00     0.027 C 
ENDBRANCH  20  23
ENDBRANCH   6  18
BRANCH   2  25
ATOM     25  C   UNL     1     -27.230 -18.480 152.768  1.00  0.00     0.227 C 
ATOM     26  O   UNL     1     -27.509 -17.728 153.698  1.00  0.00    -0.274 OA
ATOM     27  C   UNL     1     -27.068 -19.954 152.930  1.00  0.00     0.115 C 
ENDBRANCH   2  25
TORSDOF 4
ENDMDL
MODEL 7
REMARK VINA RESULT:    -9.010      6.109     10.199
REMARK INTER + INTRA:         -11.706
REMARK INTER:                 -11.316
REMARK INTRA:                  -0.391
REMARK UNBOUND:                -0.590
REMARK SMILES CCN(CC)C(=O)[C@@H]1C=C2c3cccc4c3c(cn4C(C)=O)C[C@H]2N(C)C1
REMARK SMILES IDX 25 1 19 2 24 3 10 4 23 5 8 6 27 7 17 8 11 9 16 10 9 11 15 12
REMARK SMILES IDX 18 13 26 14 12 15 14 16 13 17 6 18 7 19 3 20 2 21 1 22 4 23
REMARK SMILES IDX 5 24 20 25 22 26 21 27
REMARK H PARENT
ROOT
ATOM      1  N   UNL     1     -28.231 -18.705 151.091  1.00  0.00    -0.298 NA
ATOM      2  N   UNL     1     -32.083 -14.002 150.835  1.00  0.00    -0.287 N 
ATOM      3  C   UNL     1     -29.132 -17.596 150.692  1.00  0.00     0.091 C 
ATOM      4  C   UNL     1     -28.487 -16.651 149.641  1.00  0.00    -0.026 C 
ATOM      5  C   UNL     1     -29.790 -16.777 151.865  1.00  0.00     0.061 C 
ATOM      6  C   UNL     1     -26.242 -17.619 150.068  1.00  0.00     0.116 C 
ATOM      7  C   UNL     1     -26.850 -18.264 151.329  1.00  0.00     0.102 C 
ATOM      8  C   UNL     1     -30.609 -15.657 151.303  1.00  0.00    -0.019 A 
ATOM      9  C   UNL     1     -29.371 -15.602 149.093  1.00  0.00    -0.011 A 
ATOM     10  C   UNL     1     -30.359 -15.176 150.002  1.00  0.00     0.011 A 
ATOM     11  C   UNL     1     -27.177 -16.692 149.336  1.00  0.00    -0.007 C 
ATOM     12  C   UNL     1     -31.266 -14.160 149.700  1.00  0.00     0.056 A 
ATOM     13  C   UNL     1     -31.657 -14.927 151.796  1.00  0.00     0.099 A 
ATOM     14  C   UNL     1     -28.739 -19.518 152.188  1.00  0.00     0.106 C 
ATOM     15  C   UNL     1     -29.305 -14.986 147.846  1.00  0.00     0.009 A 
ATOM     16  C   UNL     1     -31.194 -13.545 148.435  1.00  0.00     0.027 A 
ATOM     17  C   UNL     1     -30.211 -13.975 147.526  1.00  0.00     0.003 A 
ENDROOT
BRANCH   6  18
ATOM     18  C   UNL     1     -24.875 -16.986 150.389  1.00  0.00     0.230 C 
ATOM     19  O   UNL     1     -24.772 -16.335 151.438  1.00  0.00    -0.274 OA
ATOM     20  N   UNL     1     -23.789 -17.099 149.521  1.00  0.00    -0.343 N 
BRANCH  20  21
ATOM     21  C   UNL     1     -22.542 -16.441 149.926  1.00  0.00     0.116 C 
ATOM     22  C   UNL     1     -21.885 -17.091 151.136  1.00  0.00     0.027 C 
ENDBRANCH  20  21
BRANCH  20  23
ATOM     23  C   UNL     1     -23.749 -17.863 148.267  1.00  0.00     0.116 C 
ATOM     24  C   UNL     1     -24.150 -17.047 147.049  1.00  0.00     0.027 C 
ENDBRANCH  20  23
ENDBRANCH   6  18
BRANCH   2  25
ATOM     25  C   UNL     1     -33.159 -13.118 151.080  1.00  0.00     0.227 C 
ATOM     26  O   UNL     1     -34.233 -13.575 151.460  1.00  0.00    -0.274 OA
ATOM     27  C   UNL     1     -32.922 -11.661 150.864  1.00  0.00     0.115 C 
ENDBRANCH   2  25
TORSDOF 4
ENDMDL
MODEL 8
REMARK VINA RESULT:    -8.810      3.313      7.590
REMARK INTER + INTRA:         -11.460
REMARK INTER:                 -11.140
REMARK INTRA:                  -0.320
REMARK UNBOUND:                -0.590
REMARK SMILES CCN(CC)C(=O)[C@@H]1C=C2c3cccc4c3c(cn4C(C)=O)C[C@H]2N(C)C1
REMARK SMILES IDX 25 1 19 2 24 3 10 4 23 5 8 6 27 7 17 8 11 9 16 10 9 11 15 12
REMARK SMILES IDX 18 13 26 14 12 15 14 16 13 17 6 18 7 19 3 20 2 21 1 22 4 23
REMARK SMILES IDX 5 24 20 25 22 26 21 27
REMARK H PARENT
ROOT
ATOM      1  N   UNL     1     -24.845 -15.106 145.445  1.00  0.00    -0.298 NA
ATOM      2  N   UNL     1     -27.375 -11.896 140.937  1.00  0.00    -0.287 N 
ATOM      3  C   UNL     1     -25.441 -14.067 144.570  1.00  0.00     0.091 C 
ATOM      4  C   UNL     1     -26.562 -13.259 145.280  1.00  0.00    -0.026 C 
ATOM      5  C   UNL     1     -25.900 -14.541 143.140  1.00  0.00     0.061 C 
ATOM      6  C   UNL     1     -26.684 -14.929 147.110  1.00  0.00     0.116 C 
ATOM      7  C   UNL     1     -25.850 -15.860 146.206  1.00  0.00     0.102 C 
ATOM      8  C   UNL     1     -26.540 -13.401 142.411  1.00  0.00    -0.019 A 
ATOM      9  C   UNL     1     -27.110 -12.117 144.519  1.00  0.00    -0.011 A 
ATOM     10  C   UNL     1     -27.069 -12.306 143.124  1.00  0.00     0.011 A 
ATOM     11  C   UNL     1     -27.098 -13.638 146.454  1.00  0.00    -0.007 C 
ATOM     12  C   UNL     1     -27.580 -11.369 142.226  1.00  0.00     0.056 A 
ATOM     13  C   UNL     1     -26.742 -13.137 141.082  1.00  0.00     0.099 A 
ATOM     14  C   UNL     1     -23.904 -15.986 144.767  1.00  0.00     0.106 C 
ATOM     15  C   UNL     1     -27.679 -10.946 145.014  1.00  0.00     0.009 A 
ATOM     16  C   UNL     1     -28.151 -10.187 142.735  1.00  0.00     0.027 A 
ATOM     17  C   UNL     1     -28.186  -9.997 144.129  1.00  0.00     0.003 A 
ENDROOT
BRANCH   6  18
ATOM     18  C   UNL     1     -27.856 -15.700 147.746  1.00  0.00     0.230 C 
ATOM     19  O   UNL     1     -28.965 -15.616 147.201  1.00  0.00    -0.274 OA
ATOM     20  N   UNL     1     -27.701 -16.442 148.917  1.00  0.00    -0.343 N 
BRANCH  20  21
ATOM     21  C   UNL     1     -28.893 -17.121 149.437  1.00  0.00     0.116 C 
ATOM     22  C   UNL     1     -29.754 -16.231 150.323  1.00  0.00     0.027 C 
ENDBRANCH  20  21
BRANCH  20  23
ATOM     23  C   UNL     1     -26.449 -16.662 149.652  1.00  0.00     0.116 C 
ATOM     24  C   UNL     1     -26.562 -17.719 150.739  1.00  0.00     0.027 C 
ENDBRANCH  20  23
ENDBRANCH   6  18
BRANCH   2  25
ATOM     25  C   UNL     1     -27.699 -11.372 139.664  1.00  0.00     0.227 C 
ATOM     26  O   UNL     1     -27.825 -10.158 139.532  1.00  0.00    -0.274 OA
ATOM     27  C   UNL     1     -27.868 -12.337 138.540  1.00  0.00     0.115 C 
ENDBRANCH   2  25
TORSDOF 4
ENDMDL
MODEL 9
REMARK VINA RESULT:    -8.792      4.254      7.904
REMARK INTER + INTRA:         -11.438
REMARK INTER:                 -11.304
REMARK INTRA:                  -0.133
REMARK UNBOUND:                -0.590
REMARK SMILES CCN(CC)C(=O)[C@@H]1C=C2c3cccc4c3c(cn4C(C)=O)C[C@H]2N(C)C1
REMARK SMILES IDX 25 1 19 2 24 3 10 4 23 5 8 6 27 7 17 8 11 9 16 10 9 11 15 12
REMARK SMILES IDX 18 13 26 14 12 15 14 16 13 17 6 18 7 19 3 20 2 21 1 22 4 23
REMARK SMILES IDX 5 24 20 25 22 26 21 27
REMARK H PARENT
ROOT
ATOM      1  N   UNL     1     -29.756 -14.687 147.848  1.00  0.00    -0.298 NA
ATOM      2  N   UNL     1     -24.768 -12.412 145.206  1.00  0.00    -0.287 N 
ATOM      3  C   UNL     1     -28.541 -14.429 147.035  1.00  0.00     0.091 C 
ATOM      4  C   UNL     1     -27.535 -15.612 147.072  1.00  0.00    -0.026 C 
ATOM      5  C   UNL     1     -27.814 -13.055 147.288  1.00  0.00     0.061 C 
ATOM      6  C   UNL     1     -28.717 -16.629 149.003  1.00  0.00     0.116 C 
ATOM      7  C   UNL     1     -29.454 -15.283 149.156  1.00  0.00     0.102 C 
ATOM      8  C   UNL     1     -26.577 -12.977 146.449  1.00  0.00    -0.019 A 
ATOM      9  C   UNL     1     -26.364 -15.487 146.180  1.00  0.00    -0.011 A 
ATOM     10  C   UNL     1     -25.970 -14.153 145.963  1.00  0.00     0.011 A 
ATOM     11  C   UNL     1     -27.642 -16.629 147.947  1.00  0.00    -0.007 C 
ATOM     12  C   UNL     1     -24.858 -13.817 145.190  1.00  0.00     0.056 A 
ATOM     13  C   UNL     1     -25.829 -11.929 145.984  1.00  0.00     0.099 A 
ATOM     14  C   UNL     1     -30.647 -13.542 147.964  1.00  0.00     0.106 C 
ATOM     15  C   UNL     1     -25.616 -16.505 145.594  1.00  0.00     0.009 A 
ATOM     16  C   UNL     1     -24.109 -14.852 144.599  1.00  0.00     0.027 A 
ATOM     17  C   UNL     1     -24.508 -16.185 144.812  1.00  0.00     0.003 A 
ENDROOT
BRANCH   6  18
ATOM     18  C   UNL     1     -28.234 -17.140 150.373  1.00  0.00     0.230 C 
ATOM     19  O   UNL     1     -27.034 -17.421 150.494  1.00  0.00    -0.274 OA
ATOM     20  N   UNL     1     -29.112 -17.324 151.442  1.00  0.00    -0.343 N 
BRANCH  20  21
ATOM     21  C   UNL     1     -28.539 -17.831 152.694  1.00  0.00     0.116 C 
ATOM     22  C   UNL     1     -28.801 -19.313 152.918  1.00  0.00     0.027 C 
ENDBRANCH  20  21
BRANCH  20  23
ATOM     23  C   UNL     1     -30.545 -17.004 151.460  1.00  0.00     0.116 C 
ATOM     24  C   UNL     1     -30.936 -16.036 152.565  1.00  0.00     0.027 C 
ENDBRANCH  20  23
ENDBRANCH   6  18
BRANCH   2  25
ATOM     25  C   UNL     1     -23.837 -11.541 144.595  1.00  0.00     0.227 C 
ATOM     26  O   UNL     1     -24.247 -10.542 144.011  1.00  0.00    -0.274 OA
ATOM     27  C   UNL     1     -22.390 -11.889 144.701  1.00  0.00     0.115 C 
ENDBRANCH   2  25
TORSDOF 4
ENDMDL
MODEL 10
REMARK VINA RESULT:    -8.739      2.850      7.345
REMARK INTER + INTRA:         -11.372
REMARK INTER:                 -10.920
REMARK INTRA:                  -0.452
REMARK UNBOUND:                -0.590
REMARK SMILES CCN(CC)C(=O)[C@@H]1C=C2c3cccc4c3c(cn4C(C)=O)C[C@H]2N(C)C1
REMARK SMILES IDX 25 1 19 2 24 3 10 4 23 5 8 6 27 7 17 8 11 9 16 10 9 11 15 12
REMARK SMILES IDX 18 13 26 14 12 15 14 16 13 17 6 18 7 19 3 20 2 21 1 22 4 23
REMARK SMILES IDX 5 24 20 25 22 26 21 27
REMARK H PARENT
ROOT
ATOM      1  N   UNL     1     -23.913 -15.865 145.347  1.00  0.00    -0.298 NA
ATOM      2  N   UNL     1     -27.083 -11.715 142.225  1.00  0.00    -0.287 N 
ATOM      3  C   UNL     1     -24.526 -14.633 144.792  1.00  0.00     0.091 C 
ATOM      4  C   UNL     1     -25.091 -13.698 145.895  1.00  0.00    -0.026 C 
ATOM      5  C   UNL     1     -25.569 -14.838 143.630  1.00  0.00     0.061 C 
ATOM      6  C   UNL     1     -24.925 -15.504 147.588  1.00  0.00     0.116 C 
ATOM      7  C   UNL     1     -24.719 -16.478 146.410  1.00  0.00     0.102 C 
ATOM      8  C   UNL     1     -26.146 -13.516 143.230  1.00  0.00    -0.019 A 
ATOM      9  C   UNL     1     -25.595 -12.389 145.431  1.00  0.00    -0.011 A 
ATOM     10  C   UNL     1     -26.108 -12.424 144.120  1.00  0.00     0.011 A 
ATOM     11  C   UNL     1     -25.236 -14.089 147.174  1.00  0.00    -0.007 C 
ATOM     12  C   UNL     1     -26.677 -11.306 143.509  1.00  0.00     0.056 A 
ATOM     13  C   UNL     1     -26.748 -13.068 142.085  1.00  0.00     0.099 A 
ATOM     14  C   UNL     1     -23.514 -16.837 144.338  1.00  0.00     0.106 C 
ATOM     15  C   UNL     1     -25.655 -11.190 146.137  1.00  0.00     0.009 A 
ATOM     16  C   UNL     1     -26.731 -10.097 144.229  1.00  0.00     0.027 A 
ATOM     17  C   UNL     1     -26.213 -10.063 145.536  1.00  0.00     0.003 A 
ENDROOT
BRANCH   6  18
ATOM     18  C   UNL     1     -25.932 -16.084 148.600  1.00  0.00     0.230 C 
ATOM     19  O   UNL     1     -25.492 -16.493 149.683  1.00  0.00    -0.274 OA
ATOM     20  N   UNL     1     -27.292 -16.190 148.308  1.00  0.00    -0.343 N 
BRANCH  20  21
ATOM     21  C   UNL     1     -28.152 -16.774 149.344  1.00  0.00     0.116 C 
ATOM     22  C   UNL     1     -29.468 -16.031 149.522  1.00  0.00     0.027 C 
ENDBRANCH  20  21
BRANCH  20  23
ATOM     23  C   UNL     1     -27.962 -15.720 147.088  1.00  0.00     0.116 C 
ATOM     24  C   UNL     1     -28.061 -16.782 146.005  1.00  0.00     0.027 C 
ENDBRANCH  20  23
ENDBRANCH   6  18
BRANCH   2  25
ATOM     25  C   UNL     1     -27.715 -10.994 141.185  1.00  0.00     0.227 C 
ATOM     26  O   UNL     1     -27.127 -10.846 140.117  1.00  0.00    -0.274 OA
ATOM     27  C   UNL     1     -29.080 -10.452 141.447  1.00  0.00     0.115 C 
ENDBRANCH   2  25
TORSDOF 4
ENDMDL
MODEL 11
REMARK VINA RESULT:    -8.633      4.018      7.790
REMARK INTER + INTRA:         -11.241
REMARK INTER:                 -11.659
REMARK INTRA:                   0.418
REMARK UNBOUND:                -0.590
REMARK SMILES CCN(CC)C(=O)[C@@H]1C=C2c3cccc4c3c(cn4C(C)=O)C[C@H]2N(C)C1
REMARK SMILES IDX 25 1 19 2 24 3 10 4 23 5 8 6 27 7 17 8 11 9 16 10 9 11 15 12
REMARK SMILES IDX 18 13 26 14 12 15 14 16 13 17 6 18 7 19 3 20 2 21 1 22 4 23
REMARK SMILES IDX 5 24 20 25 22 26 21 27
REMARK H PARENT
ROOT
ATOM      1  N   UNL     1     -29.980 -14.627 147.896  1.00  0.00    -0.298 NA
ATOM      2  N   UNL     1     -24.897 -12.495 145.319  1.00  0.00    -0.287 N 
ATOM      3  C   UNL     1     -28.749 -14.403 147.099  1.00  0.00     0.091 C 
ATOM      4  C   UNL     1     -27.779 -15.615 147.145  1.00  0.00    -0.026 C 
ATOM      5  C   UNL     1     -27.985 -13.052 147.363  1.00  0.00     0.061 C 
ATOM      6  C   UNL     1     -29.013 -16.601 149.059  1.00  0.00     0.116 C 
ATOM      7  C   UNL     1     -29.712 -15.234 149.206  1.00  0.00     0.102 C 
ATOM      8  C   UNL     1     -26.736 -13.008 146.539  1.00  0.00    -0.019 A 
ATOM      9  C   UNL     1     -26.595 -15.523 146.267  1.00  0.00    -0.011 A 
ATOM     10  C   UNL     1     -26.158 -14.200 146.058  1.00  0.00     0.011 A 
ATOM     11  C   UNL     1     -27.926 -16.630 148.016  1.00  0.00    -0.007 C 
ATOM     12  C   UNL     1     -25.029 -13.896 145.299  1.00  0.00     0.056 A 
ATOM     13  C   UNL     1     -25.952 -11.982 146.086  1.00  0.00     0.099 A 
ATOM     14  C   UNL     1     -30.839 -13.456 148.005  1.00  0.00     0.106 C 
ATOM     15  C   UNL     1     -25.870 -16.561 145.687  1.00  0.00     0.009 A 
ATOM     16  C   UNL     1     -24.304 -14.952 144.714  1.00  0.00     0.027 A 
ATOM     17  C   UNL     1     -24.744 -16.272 144.919  1.00  0.00     0.003 A 
ENDROOT
BRANCH   6  18
ATOM     18  C   UNL     1     -28.562 -17.129 150.433  1.00  0.00     0.230 C 
ATOM     19  O   UNL     1     -29.434 -17.327 151.291  1.00  0.00    -0.274 OA
ATOM     20  N   UNL     1     -27.217 -17.347 150.734  1.00  0.00    -0.343 N 
BRANCH  20  21
ATOM     21  C   UNL     1     -26.907 -17.837 152.081  1.00  0.00     0.116 C 
ATOM     22  C   UNL     1     -26.914 -19.355 152.186  1.00  0.00     0.027 C 
ENDBRANCH  20  21
BRANCH  20  23
ATOM     23  C   UNL     1     -26.082 -17.192 149.815  1.00  0.00     0.116 C 
ATOM     24  C   UNL     1     -24.811 -16.714 150.499  1.00  0.00     0.027 C 
ENDBRANCH  20  23
ENDBRANCH   6  18
BRANCH   2  25
ATOM     25  C   UNL     1     -23.934 -11.650 144.721  1.00  0.00     0.227 C 
ATOM     26  O   UNL     1     -24.309 -10.648 144.119  1.00  0.00    -0.274 OA
ATOM     27  C   UNL     1     -22.498 -12.028 144.862  1.00  0.00     0.115 C 
ENDBRANCH   2  25
TORSDOF 4
ENDMDL
MODEL 12
REMARK VINA RESULT:    -8.474      2.509      7.768
REMARK INTER + INTRA:         -11.045
REMARK INTER:                 -10.717
REMARK INTRA:                  -0.328
REMARK UNBOUND:                -0.590
REMARK SMILES CCN(CC)C(=O)[C@@H]1C=C2c3cccc4c3c(cn4C(C)=O)C[C@H]2N(C)C1
REMARK SMILES IDX 25 1 19 2 24 3 10 4 23 5 8 6 27 7 17 8 11 9 16 10 9 11 15 12
REMARK SMILES IDX 18 13 26 14 12 15 14 16 13 17 6 18 7 19 3 20 2 21 1 22 4 23
REMARK SMILES IDX 5 24 20 25 22 26 21 27
REMARK H PARENT
ROOT
ATOM      1  N   UNL     1     -25.551 -12.672 145.514  1.00  0.00    -0.298 NA
ATOM      2  N   UNL     1     -28.707  -9.551 141.352  1.00  0.00    -0.287 N 
ATOM      3  C   UNL     1     -26.422 -11.730 144.770  1.00  0.00     0.091 C 
ATOM      4  C   UNL     1     -27.829 -11.584 145.411  1.00  0.00    -0.026 C 
ATOM      5  C   UNL     1     -26.526 -11.959 143.215  1.00  0.00     0.061 C 
ATOM      6  C   UNL     1     -27.456 -13.592 146.819  1.00  0.00     0.116 C 
ATOM      7  C   UNL     1     -26.247 -13.902 145.914  1.00  0.00     0.102 C 
ATOM      8  C   UNL     1     -27.490 -10.978 142.623  1.00  0.00    -0.019 A 
ATOM      9  C   UNL     1     -28.707 -10.561 144.806  1.00  0.00    -0.011 A 
ATOM     10  C   UNL     1     -28.467 -10.364 143.432  1.00  0.00     0.011 A 
ATOM     11  C   UNL     1     -28.280 -12.414 146.369  1.00  0.00    -0.007 C 
ATOM     12  C   UNL     1     -29.219  -9.477 142.661  1.00  0.00     0.056 A 
ATOM     13  C   UNL     1     -27.656 -10.477 141.360  1.00  0.00     0.099 A 
ATOM     14  C   UNL     1     -24.282 -12.955 144.857  1.00  0.00     0.106 C 
ATOM     15  C   UNL     1     -29.730  -9.837 145.413  1.00  0.00     0.009 A 
ATOM     16  C   UNL     1     -30.250  -8.747 143.284  1.00  0.00     0.027 A 
ATOM     17  C   UNL     1     -30.485  -8.941 144.657  1.00  0.00     0.003 A 
ENDROOT
BRANCH   6  18
ATOM     18  C   UNL     1     -28.288 -14.866 147.065  1.00  0.00     0.230 C 
ATOM     19  O   UNL     1     -29.410 -14.932 146.546  1.00  0.00    -0.274 OA
ATOM     20  N   UNL     1     -27.825 -15.903 147.875  1.00  0.00    -0.343 N 
BRANCH  20  21
ATOM     21  C   UNL     1     -28.712 -17.059 148.049  1.00  0.00     0.116 C 
ATOM     22  C   UNL     1     -29.359 -17.119 149.425  1.00  0.00     0.027 C 
ENDBRANCH  20  21
BRANCH  20  23
ATOM     23  C   UNL     1     -26.511 -15.982 148.526  1.00  0.00     0.116 C 
ATOM     24  C   UNL     1     -25.570 -16.982 147.871  1.00  0.00     0.027 C 
ENDBRANCH  20  23
ENDBRANCH   6  18
BRANCH   2  25
ATOM     25  C   UNL     1     -29.092  -8.874 140.172  1.00  0.00     0.227 C 
ATOM     26  O   UNL     1     -30.106  -8.183 140.183  1.00  0.00    -0.274 OA
ATOM     27  C   UNL     1     -28.228  -9.036 138.967  1.00  0.00     0.115 C 
ENDBRANCH   2  25
TORSDOF 4
ENDMDL
MODEL 13
REMARK VINA RESULT:    -8.403      3.040      4.917
REMARK INTER + INTRA:         -10.958
REMARK INTER:                 -10.425
REMARK INTRA:                  -0.533
REMARK UNBOUND:                -0.590
REMARK SMILES CCN(CC)C(=O)[C@@H]1C=C2c3cccc4c3c(cn4C(C)=O)C[C@H]2N(C)C1
REMARK SMILES IDX 25 1 19 2 24 3 10 4 23 5 8 6 27 7 17 8 11 9 16 10 9 11 15 12
REMARK SMILES IDX 18 13 26 14 12 15 14 16 13 17 6 18 7 19 3 20 2 21 1 22 4 23
REMARK SMILES IDX 5 24 20 25 22 26 21 27
REMARK H PARENT
ROOT
ATOM      1  N   UNL     1     -25.202 -14.019 144.013  1.00  0.00    -0.298 NA
ATOM      2  N   UNL     1     -25.358 -16.679 149.484  1.00  0.00    -0.287 N 
ATOM      3  C   UNL     1     -25.545 -14.778 145.241  1.00  0.00     0.091 C 
ATOM      4  C   UNL     1     -26.970 -14.451 145.767  1.00  0.00    -0.026 C 
ATOM      5  C   UNL     1     -24.485 -14.734 146.405  1.00  0.00     0.061 C 
ATOM      6  C   UNL     1     -27.112 -12.454 144.301  1.00  0.00     0.116 C 
ATOM      7  C   UNL     1     -25.593 -12.606 144.085  1.00  0.00     0.102 C 
ATOM      8  C   UNL     1     -25.006 -15.484 147.592  1.00  0.00    -0.019 A 
ATOM      9  C   UNL     1     -27.436 -15.266 146.908  1.00  0.00    -0.011 A 
ATOM     10  C   UNL     1     -26.391 -15.699 147.746  1.00  0.00     0.011 A 
ATOM     11  C   UNL     1     -27.692 -13.412 145.309  1.00  0.00    -0.007 C 
ATOM     12  C   UNL     1     -26.619 -16.440 148.906  1.00  0.00     0.056 A 
ATOM     13  C   UNL     1     -24.395 -16.082 148.661  1.00  0.00     0.099 A 
ATOM     14  C   UNL     1     -23.821 -14.181 143.581  1.00  0.00     0.106 C 
ATOM     15  C   UNL     1     -28.744 -15.599 147.250  1.00  0.00     0.009 A 
ATOM     16  C   UNL     1     -27.945 -16.775 149.243  1.00  0.00     0.027 A 
ATOM     17  C   UNL     1     -28.987 -16.347 148.401  1.00  0.00     0.003 A 
ENDROOT
BRANCH   6  18
ATOM     18  C   UNL     1     -27.475 -10.982 144.573  1.00  0.00     0.230 C 
ATOM     19  O   UNL     1     -27.062 -10.469 145.622  1.00  0.00    -0.274 OA
ATOM     20  N   UNL     1     -28.274 -10.246 143.697  1.00  0.00    -0.343 N 
BRANCH  20  21
ATOM     21  C   UNL     1     -28.566  -8.857 144.069  1.00  0.00     0.116 C 
ATOM     22  C   UNL     1     -30.045  -8.510 143.981  1.00  0.00     0.027 C 
ENDBRANCH  20  21
BRANCH  20  23
ATOM     23  C   UNL     1     -28.805 -10.704 142.407  1.00  0.00     0.116 C 
ATOM     24  C   UNL     1     -27.885 -10.407 141.233  1.00  0.00     0.027 C 
ENDBRANCH  20  23
ENDBRANCH   6  18
BRANCH   2  25
ATOM     25  C   UNL     1     -25.001 -17.374 150.662  1.00  0.00     0.227 C 
ATOM     26  O   UNL     1     -25.846 -18.060 151.231  1.00  0.00    -0.274 OA
ATOM     27  C   UNL     1     -23.599 -17.236 151.150  1.00  0.00     0.115 C 
ENDBRANCH   2  25
TORSDOF 4
ENDMDL
MODEL 14
REMARK VINA RESULT:    -8.299      3.849      6.050
REMARK INTER + INTRA:         -10.829
REMARK INTER:                 -10.355
REMARK INTRA:                  -0.475
REMARK UNBOUND:                -0.590
REMARK SMILES CCN(CC)C(=O)[C@@H]1C=C2c3cccc4c3c(cn4C(C)=O)C[C@H]2N(C)C1
REMARK SMILES IDX 25 1 19 2 24 3 10 4 23 5 8 6 27 7 17 8 11 9 16 10 9 11 15 12
REMARK SMILES IDX 18 13 26 14 12 15 14 16 13 17 6 18 7 19 3 20 2 21 1 22 4 23
REMARK SMILES IDX 5 24 20 25 22 26 21 27
REMARK H PARENT
ROOT
ATOM      1  N   UNL     1     -25.021 -15.679 145.009  1.00  0.00    -0.298 NA
ATOM      2  N   UNL     1     -26.377 -17.629 150.612  1.00  0.00    -0.287 N 
ATOM      3  C   UNL     1     -25.669 -16.169 146.251  1.00  0.00     0.091 C 
ATOM      4  C   UNL     1     -26.935 -15.351 146.627  1.00  0.00    -0.026 C 
ATOM      5  C   UNL     1     -24.726 -16.365 147.497  1.00  0.00     0.061 C 
ATOM      6  C   UNL     1     -26.320 -13.559 145.024  1.00  0.00     0.116 C 
ATOM      7  C   UNL     1     -24.926 -14.215 144.952  1.00  0.00     0.102 C 
ATOM      8  C   UNL     1     -25.536 -16.792 148.681  1.00  0.00    -0.019 A 
ATOM      9  C   UNL     1     -27.712 -15.862 147.775  1.00  0.00    -0.011 A 
ATOM     10  C   UNL     1     -26.921 -16.531 148.729  1.00  0.00     0.011 A 
ATOM     11  C   UNL     1     -27.244 -14.181 146.039  1.00  0.00    -0.007 C 
ATOM     12  C   UNL     1     -27.451 -17.049 149.911  1.00  0.00     0.056 A 
ATOM     13  C   UNL     1     -25.222 -17.455 149.837  1.00  0.00     0.099 A 
ATOM     14  C   UNL     1     -23.747 -16.319 144.711  1.00  0.00     0.106 C 
ATOM     15  C   UNL     1     -29.074 -15.719 148.024  1.00  0.00     0.009 A 
ATOM     16  C   UNL     1     -28.830 -16.902 150.153  1.00  0.00     0.027 A 
ATOM     17  C   UNL     1     -29.620 -16.238 149.197  1.00  0.00     0.003 A 
ENDROOT
BRANCH   6  18
ATOM     18  C   UNL     1     -26.192 -12.030 145.164  1.00  0.00     0.230 C 
ATOM     19  O   UNL     1     -25.416 -11.592 146.023  1.00  0.00    -0.274 OA
ATOM     20  N   UNL     1     -26.946 -11.154 144.383  1.00  0.00    -0.343 N 
BRANCH  20  21
ATOM     21  C   UNL     1     -26.750  -9.718 144.616  1.00  0.00     0.116 C 
ATOM     22  C   UNL     1     -27.939  -8.872 144.185  1.00  0.00     0.027 C 
ENDBRANCH  20  21
BRANCH  20  23
ATOM     23  C   UNL     1     -27.875 -11.522 143.307  1.00  0.00     0.116 C 
ATOM     24  C   UNL     1     -27.181 -11.843 141.992  1.00  0.00     0.027 C 
ENDBRANCH  20  23
ENDBRANCH   6  18
BRANCH   2  25
ATOM     25  C   UNL     1     -26.342 -18.291 151.861  1.00  0.00     0.227 C 
ATOM     26  O   UNL     1     -25.343 -18.182 152.567  1.00  0.00    -0.274 OA
ATOM     27  C   UNL     1     -27.537 -19.091 152.255  1.00  0.00     0.115 C 
ENDBRANCH   2  25
TORSDOF 4
ENDMDL
MODEL 15
REMARK VINA RESULT:    -8.132      4.676      8.164
REMARK INTER + INTRA:         -10.624
REMARK INTER:                 -10.728
REMARK INTRA:                   0.104
REMARK UNBOUND:                -0.590
REMARK SMILES CCN(CC)C(=O)[C@@H]1C=C2c3cccc4c3c(cn4C(C)=O)C[C@H]2N(C)C1
REMARK SMILES IDX 25 1 19 2 24 3 10 4 23 5 8 6 27 7 17 8 11 9 16 10 9 11 15 12
REMARK SMILES IDX 18 13 26 14 12 15 14 16 13 17 6 18 7 19 3 20 2 21 1 22 4 23
REMARK SMILES IDX 5 24 20 25 22 26 21 27
REMARK H PARENT
ROOT
ATOM      1  N   UNL     1     -31.355 -13.793 148.751  1.00  0.00    -0.298 NA
ATOM      2  N   UNL     1     -26.148 -13.106 145.679  1.00  0.00    -0.287 N 
ATOM      3  C   UNL     1     -30.165 -13.933 147.876  1.00  0.00     0.091 C 
ATOM      4  C   UNL     1     -29.453 -15.303 148.050  1.00  0.00    -0.026 C 
ATOM      5  C   UNL     1     -29.130 -12.746 147.915  1.00  0.00     0.061 C 
ATOM      6  C   UNL     1     -30.718 -15.758 150.135  1.00  0.00     0.116 C 
ATOM      7  C   UNL     1     -31.119 -14.269 150.120  1.00  0.00     0.102 C 
ATOM      8  C   UNL     1     -27.960 -13.067 147.038  1.00  0.00    -0.019 A 
ATOM      9  C   UNL     1     -28.340 -15.571 147.116  1.00  0.00    -0.011 A 
ATOM     10  C   UNL     1     -27.666 -14.405 146.705  1.00  0.00     0.011 A 
ATOM     11  C   UNL     1     -29.736 -16.145 149.060  1.00  0.00    -0.007 C 
ATOM     12  C   UNL     1     -26.556 -14.440 145.861  1.00  0.00     0.056 A 
ATOM     13  C   UNL     1     -27.022 -12.292 146.411  1.00  0.00     0.099 A 
ATOM     14  C   UNL     1     -31.954 -12.466 148.732  1.00  0.00     0.106 C 
ATOM     15  C   UNL     1     -27.880 -16.802 146.656  1.00  0.00     0.009 A 
ATOM     16  C   UNL     1     -26.099 -15.689 145.399  1.00  0.00     0.027 A 
ATOM     17  C   UNL     1     -26.776 -16.853 145.806  1.00  0.00     0.003 A 
ENDROOT
BRANCH   6  18
ATOM     18  C   UNL     1     -30.283 -16.187 151.549  1.00  0.00     0.230 C 
ATOM     19  O   UNL     1     -30.816 -15.622 152.514  1.00  0.00    -0.274 OA
ATOM     20  N   UNL     1     -29.296 -17.151 151.756  1.00  0.00    -0.343 N 
BRANCH  20  21
ATOM     21  C   UNL     1     -28.954 -17.466 153.148  1.00  0.00     0.116 C 
ATOM     22  C   UNL     1     -29.480 -18.819 153.604  1.00  0.00     0.027 C 
ENDBRANCH  20  21
BRANCH  20  23
ATOM     23  C   UNL     1     -28.604 -17.927 150.719  1.00  0.00     0.116 C 
ATOM     24  C   UNL     1     -27.091 -17.922 150.868  1.00  0.00     0.027 C 
ENDBRANCH  20  23
ENDBRANCH   6  18
BRANCH   2  25
ATOM     25  C   UNL     1     -25.081 -12.562 144.926  1.00  0.00     0.227 C 
ATOM     26  O   UNL     1     -25.272 -12.259 143.752  1.00  0.00    -0.274 OA
ATOM     27  C   UNL     1     -23.770 -12.381 145.613  1.00  0.00     0.115 C 
ENDBRANCH   2  25
TORSDOF 4
ENDMDL
MODEL 16
REMARK VINA RESULT:    -7.990      2.826      8.238
REMARK INTER + INTRA:         -10.448
REMARK INTER:                 -10.704
REMARK INTRA:                   0.256
REMARK UNBOUND:                -0.590
REMARK SMILES CCN(CC)C(=O)[C@@H]1C=C2c3cccc4c3c(cn4C(C)=O)C[C@H]2N(C)C1
REMARK SMILES IDX 25 1 19 2 24 3 10 4 23 5 8 6 27 7 17 8 11 9 16 10 9 11 15 12
REMARK SMILES IDX 18 13 26 14 12 15 14 16 13 17 6 18 7 19 3 20 2 21 1 22 4 23
REMARK SMILES IDX 5 24 20 25 22 26 21 27
REMARK H PARENT
ROOT
ATOM      1  N   UNL     1     -28.690 -16.331 148.348  1.00  0.00    -0.298 NA
ATOM      2  N   UNL     1     -28.899 -11.110 145.229  1.00  0.00    -0.287 N 
ATOM      3  C   UNL     1     -28.625 -15.251 147.332  1.00  0.00     0.091 C 
ATOM      4  C   UNL     1     -27.264 -15.217 146.583  1.00  0.00    -0.026 C 
ATOM      5  C   UNL     1     -29.043 -13.813 147.817  1.00  0.00     0.061 C 
ATOM      6  C   UNL     1     -26.235 -16.716 148.271  1.00  0.00     0.116 C 
ATOM      7  C   UNL     1     -27.467 -16.433 149.154  1.00  0.00     0.102 C 
ATOM      8  C   UNL     1     -28.857 -12.830 146.703  1.00  0.00    -0.019 A 
ATOM      9  C   UNL     1     -27.172 -14.258 145.463  1.00  0.00    -0.011 A 
ATOM     10  C   UNL     1     -27.977 -13.116 145.640  1.00  0.00     0.011 A 
ATOM     11  C   UNL     1     -26.191 -15.915 146.996  1.00  0.00    -0.007 C 
ATOM     12  C   UNL     1     -28.001 -12.066 144.722  1.00  0.00     0.056 A 
ATOM     13  C   UNL     1     -29.404 -11.602 146.440  1.00  0.00     0.099 A 
ATOM     14  C   UNL     1     -29.886 -16.295 149.177  1.00  0.00     0.106 C 
ATOM     15  C   UNL     1     -26.375 -14.339 144.324  1.00  0.00     0.009 A 
ATOM     16  C   UNL     1     -27.193 -12.158 143.572  1.00  0.00     0.027 A 
ATOM     17  C   UNL     1     -26.393 -13.301 143.393  1.00  0.00     0.003 A 
ENDROOT
BRANCH   6  18
ATOM     18  C   UNL     1     -24.941 -16.623 149.101  1.00  0.00     0.230 C 
ATOM     19  O   UNL     1     -24.954 -15.910 150.113  1.00  0.00    -0.274 OA
ATOM     20  N   UNL     1     -23.772 -17.283 148.720  1.00  0.00    -0.343 N 
BRANCH  20  21
ATOM     21  C   UNL     1     -22.597 -17.107 149.582  1.00  0.00     0.116 C 
ATOM     22  C   UNL     1     -22.851 -17.498 151.031  1.00  0.00     0.027 C 
ENDBRANCH  20  21
BRANCH  20  23
ATOM     23  C   UNL     1     -23.614 -18.185 147.573  1.00  0.00     0.116 C 
ATOM     24  C   UNL     1     -23.347 -17.460 146.264  1.00  0.00     0.027 C 
ENDBRANCH  20  23
ENDBRANCH   6  18
BRANCH   2  25
ATOM     25  C   UNL     1     -29.301  -9.857 144.711  1.00  0.00     0.227 C 
ATOM     26  O   UNL     1     -30.477  -9.517 144.814  1.00  0.00    -0.274 OA
ATOM     27  C   UNL     1     -28.259  -9.007 144.066  1.00  0.00     0.115 C 
ENDBRANCH   2  25
TORSDOF 4
ENDMDL
MODEL 17
REMARK VINA RESULT:    -7.961      2.620      7.620
REMARK INTER + INTRA:         -10.413
REMARK INTER:                 -10.012
REMARK INTRA:                  -0.401
REMARK UNBOUND:                -0.590
REMARK SMILES CCN(CC)C(=O)[C@@H]1C=C2c3cccc4c3c(cn4C(C)=O)C[C@H]2N(C)C1
REMARK SMILES IDX 25 1 19 2 24 3 10 4 23 5 8 6 27 7 17 8 11 9 16 10 9 11 15 12
REMARK SMILES IDX 18 13 26 14 12 15 14 16 13 17 6 18 7 19 3 20 2 21 1 22 4 23
REMARK SMILES IDX 5 24 20 25 22 26 21 27
REMARK H PARENT
ROOT
ATOM      1  N   UNL     1     -25.807 -11.140 145.146  1.00  0.00    -0.298 NA
ATOM      2  N   UNL     1     -28.960  -8.846 140.474  1.00  0.00    -0.287 N 
ATOM      3  C   UNL     1     -26.736 -10.405 144.252  1.00  0.00     0.091 C 
ATOM      4  C   UNL     1     -28.210 -10.473 144.736  1.00  0.00    -0.026 C 
ATOM      5  C   UNL     1     -26.626 -10.732 142.715  1.00  0.00     0.061 C 
ATOM      6  C   UNL     1     -27.664 -12.307 146.316  1.00  0.00     0.116 C 
ATOM      7  C   UNL     1     -26.327 -12.449 145.561  1.00  0.00     0.102 C 
ATOM      8  C   UNL     1     -27.670  -9.968 141.961  1.00  0.00    -0.019 A 
ATOM      9  C   UNL     1     -29.174  -9.653 143.975  1.00  0.00    -0.011 A 
ATOM     10  C   UNL     1     -28.820  -9.491 142.621  1.00  0.00     0.011 A 
ATOM     11  C   UNL     1     -28.618 -11.316 145.702  1.00  0.00    -0.007 C 
ATOM     12  C   UNL     1     -29.619  -8.791 141.717  1.00  0.00     0.056 A 
ATOM     13  C   UNL     1     -27.775  -9.572 140.654  1.00  0.00     0.099 A 
ATOM     14  C   UNL     1     -24.444 -11.232 144.641  1.00  0.00     0.106 C 
ATOM     15  C   UNL     1     -30.365  -9.087 144.422  1.00  0.00     0.009 A 
ATOM     16  C   UNL     1     -30.820  -8.220 142.179  1.00  0.00     0.027 A 
ATOM     17  C   UNL     1     -31.170  -8.378 143.532  1.00  0.00     0.003 A 
ENDROOT
BRANCH   6  18
ATOM     18  C   UNL     1     -28.292 -13.691 146.569  1.00  0.00     0.230 C 
ATOM     19  O   UNL     1     -27.900 -14.639 145.875  1.00  0.00    -0.274 OA
ATOM     20  N   UNL     1     -29.298 -13.882 147.517  1.00  0.00    -0.343 N 
BRANCH  20  21
ATOM     21  C   UNL     1     -29.831 -15.241 147.657  1.00  0.00     0.116 C 
ATOM     22  C   UNL     1     -29.277 -15.982 148.866  1.00  0.00     0.027 C 
ENDBRANCH  20  21
BRANCH  20  23
ATOM     23  C   UNL     1     -29.838 -12.868 148.432  1.00  0.00     0.116 C 
ATOM     24  C   UNL     1     -31.342 -12.971 148.630  1.00  0.00     0.027 C 
ENDBRANCH  20  23
ENDBRANCH   6  18
BRANCH   2  25
ATOM     25  C   UNL     1     -29.319  -8.310 139.216  1.00  0.00     0.227 C 
ATOM     26  O   UNL     1     -30.494  -8.029 138.999  1.00  0.00    -0.274 OA
ATOM     27  C   UNL     1     -28.233  -8.110 138.213  1.00  0.00     0.115 C 
ENDBRANCH   2  25
TORSDOF 4
ENDMDL
MODEL 18
REMARK VINA RESULT:    -7.925      2.900      3.720
REMARK INTER + INTRA:         -10.368
REMARK INTER:                 -10.972
REMARK INTRA:                   0.605
REMARK UNBOUND:                -0.590
REMARK SMILES CCN(CC)C(=O)[C@@H]1C=C2c3cccc4c3c(cn4C(C)=O)C[C@H]2N(C)C1
REMARK SMILES IDX 25 1 19 2 24 3 10 4 23 5 8 6 27 7 17 8 11 9 16 10 9 11 15 12
REMARK SMILES IDX 18 13 26 14 12 15 14 16 13 17 6 18 7 19 3 20 2 21 1 22 4 23
REMARK SMILES IDX 5 24 20 25 22 26 21 27
REMARK H PARENT
ROOT
ATOM      1  N   UNL     1     -28.829 -10.393 144.900  1.00  0.00    -0.298 NA
ATOM      2  N   UNL     1     -28.016 -15.430 148.216  1.00  0.00    -0.287 N 
ATOM      3  C   UNL     1     -28.310 -11.509 145.730  1.00  0.00     0.091 C 
ATOM      4  C   UNL     1     -26.994 -12.110 145.165  1.00  0.00    -0.026 C 
ATOM      5  C   UNL     1     -29.341 -12.641 146.098  1.00  0.00     0.061 C 
ATOM      6  C   UNL     1     -27.328 -10.949 142.998  1.00  0.00     0.116 C 
ATOM      7  C   UNL     1     -28.774 -10.676 143.460  1.00  0.00     0.102 C 
ATOM      8  C   UNL     1     -28.651 -13.720 146.872  1.00  0.00    -0.019 A 
ATOM      9  C   UNL     1     -26.342 -13.134 146.008  1.00  0.00    -0.011 A 
ATOM     10  C   UNL     1     -27.253 -13.877 146.785  1.00  0.00     0.011 A 
ATOM     11  C   UNL     1     -26.534 -11.822 143.934  1.00  0.00    -0.007 C 
ATOM     12  C   UNL     1     -26.849 -14.923 147.614  1.00  0.00     0.056 A 
ATOM     13  C   UNL     1     -29.099 -14.678 147.742  1.00  0.00     0.099 A 
ATOM     14  C   UNL     1     -30.141  -9.909 145.309  1.00  0.00     0.106 C 
ATOM     15  C   UNL     1     -24.990 -13.457 146.079  1.00  0.00     0.009 A 
ATOM     16  C   UNL     1     -25.479 -15.241 147.681  1.00  0.00     0.027 A 
ATOM     17  C   UNL     1     -24.570 -14.495 146.909  1.00  0.00     0.003 A 
ENDROOT
BRANCH   6  18
ATOM     18  C   UNL     1     -27.310 -11.436 141.537  1.00  0.00     0.230 C 
ATOM     19  O   UNL     1     -26.805 -12.542 141.303  1.00  0.00    -0.274 OA
ATOM     20  N   UNL     1     -27.807 -10.655 140.493  1.00  0.00    -0.343 N 
BRANCH  20  21
ATOM     21  C   UNL     1     -27.722 -11.218 139.141  1.00  0.00     0.116 C 
ATOM     22  C   UNL     1     -28.263 -12.638 139.046  1.00  0.00     0.027 C 
ENDBRANCH  20  21
BRANCH  20  23
ATOM     23  C   UNL     1     -28.463  -9.347 140.618  1.00  0.00     0.116 C 
ATOM     24  C   UNL     1     -28.416  -8.522 139.342  1.00  0.00     0.027 C 
ENDBRANCH  20  23
ENDBRANCH   6  18
BRANCH   2  25
ATOM     25  C   UNL     1     -28.193 -16.488 149.137  1.00  0.00     0.227 C 
ATOM     26  O   UNL     1     -27.206 -17.080 149.565  1.00  0.00    -0.274 OA
ATOM     27  C   UNL     1     -29.587 -16.827 149.544  1.00  0.00     0.115 C 
ENDBRANCH   2  25
TORSDOF 4
ENDMDL
MODEL 19
REMARK VINA RESULT:    -7.688      2.637      8.131
REMARK INTER + INTRA:         -10.076
REMARK INTER:                 -10.871
REMARK INTRA:                   0.795
REMARK UNBOUND:                -0.590
REMARK SMILES CCN(CC)C(=O)[C@@H]1C=C2c3cccc4c3c(cn4C(C)=O)C[C@H]2N(C)C1
REMARK SMILES IDX 25 1 19 2 24 3 10 4 23 5 8 6 27 7 17 8 11 9 16 10 9 11 15 12
REMARK SMILES IDX 18 13 26 14 12 15 14 16 13 17 6 18 7 19 3 20 2 21 1 22 4 23
REMARK SMILES IDX 5 24 20 25 22 26 21 27
REMARK H PARENT
ROOT
ATOM      1  N   UNL     1     -26.549 -17.088 145.807  1.00  0.00    -0.298 NA
ATOM      2  N   UNL     1     -26.829 -11.061 145.016  1.00  0.00    -0.287 N 
ATOM      3  C   UNL     1     -26.339 -15.670 145.424  1.00  0.00     0.091 C 
ATOM      4  C   UNL     1     -24.873 -15.204 145.638  1.00  0.00    -0.026 C 
ATOM      5  C   UNL     1     -27.360 -14.629 146.020  1.00  0.00     0.061 C 
ATOM      6  C   UNL     1     -24.378 -17.208 147.014  1.00  0.00     0.116 C 
ATOM      7  C   UNL     1     -25.902 -17.439 147.078  1.00  0.00     0.102 C 
ATOM      8  C   UNL     1     -26.974 -13.245 145.600  1.00  0.00    -0.019 A 
ATOM      9  C   UNL     1     -24.553 -13.845 145.152  1.00  0.00    -0.011 A 
ATOM     10  C   UNL     1     -25.652 -12.965 145.200  1.00  0.00     0.011 A 
ATOM     11  C   UNL     1     -23.976 -15.926 146.332  1.00  0.00    -0.007 C 
ATOM     12  C   UNL     1     -25.553 -11.623 144.831  1.00  0.00     0.056 A 
ATOM     13  C   UNL     1     -27.674 -12.074 145.488  1.00  0.00     0.099 A 
ATOM     14  C   UNL     1     -27.941 -17.514 145.770  1.00  0.00     0.106 C 
ATOM     15  C   UNL     1     -23.327 -13.354 144.714  1.00  0.00     0.009 A 
ATOM     16  C   UNL     1     -24.308 -11.136 144.387  1.00  0.00     0.027 A 
ATOM     17  C   UNL     1     -23.214 -12.018 144.334  1.00  0.00     0.003 A 
ENDROOT
BRANCH   6  18
ATOM     18  C   UNL     1     -23.745 -17.390 148.407  1.00  0.00     0.230 C 
ATOM     19  O   UNL     1     -22.621 -17.906 148.467  1.00  0.00    -0.274 OA
ATOM     20  N   UNL     1     -24.416 -17.026 149.575  1.00  0.00    -0.343 N 
BRANCH  20  21
ATOM     21  C   UNL     1     -23.718 -17.261 150.844  1.00  0.00     0.116 C 
ATOM     22  C   UNL     1     -22.321 -16.656 150.883  1.00  0.00     0.027 C 
ENDBRANCH  20  21
BRANCH  20  23
ATOM     23  C   UNL     1     -25.729 -16.375 149.660  1.00  0.00     0.116 C 
ATOM     24  C   UNL     1     -26.714 -17.113 150.553  1.00  0.00     0.027 C 
ENDBRANCH  20  23
ENDBRANCH   6  18
BRANCH   2  25
ATOM     25  C   UNL     1     -27.296  -9.744 144.802  1.00  0.00     0.227 C 
ATOM     26  O   UNL     1     -26.555  -8.798 145.053  1.00  0.00    -0.274 OA
ATOM     27  C   UNL     1     -28.681  -9.577 144.272  1.00  0.00     0.115 C 
ENDBRANCH   2  25
TORSDOF 4
ENDMDL
