MODEL 1
REMARK VINA RESULT:    -8.483      0.000      0.000
REMARK INTER + INTRA:         -11.144
REMARK INTER:                 -10.467
REMARK INTRA:                  -0.677
REMARK UNBOUND:                -0.677
REMARK SMILES CCN(CC)C(=O)[C@@H]1C=C2c3cccc4c3c(cn4C(C)=O)C[C@H]2N(C)C1
REMARK SMILES IDX 25 1 19 2 24 3 10 4 23 5 8 6 27 7 17 8 11 9 16 10 9 11 15 12
REMARK SMILES IDX 18 13 26 14 12 15 14 16 13 17 6 18 7 19 3 20 2 21 1 22 4 23
REMARK SMILES IDX 5 24 20 25 22 26 21 27
REMARK H PARENT
ROOT
ATOM      1  N   UNL     1     105.637 135.725 125.736  1.00  0.00    -0.298 NA
ATOM      2  N   UNL     1     109.883 140.075 126.015  1.00  0.00    -0.287 N 
ATOM      3  C   UNL     1     106.792 136.632 125.524  1.00  0.00     0.091 C 
ATOM      4  C   UNL     1     108.121 135.862 125.291  1.00  0.00    -0.026 C 
ATOM      5  C   UNL     1     106.979 137.781 126.585  1.00  0.00     0.061 C 
ATOM      6  C   UNL     1     107.100 133.748 126.094  1.00  0.00     0.116 C 
ATOM      7  C   UNL     1     105.943 134.609 126.639  1.00  0.00     0.102 C 
ATOM      8  C   UNL     1     108.219 138.560 126.273  1.00  0.00    -0.019 A 
ATOM      9  C   UNL     1     109.291 136.693 124.938  1.00  0.00    -0.011 A 
ATOM     10  C   UNL     1     109.242 137.987 125.492  1.00  0.00     0.011 A 
ATOM     11  C   UNL     1     108.244 134.542 125.519  1.00  0.00    -0.007 C 
ATOM     12  C   UNL     1     110.270 138.914 125.320  1.00  0.00     0.056 A 
ATOM     13  C   UNL     1     108.629 139.828 126.587  1.00  0.00     0.099 A 
ATOM     14  C   UNL     1     104.407 136.408 126.113  1.00  0.00     0.106 C 
ATOM     15  C   UNL     1     110.407 136.333 124.187  1.00  0.00     0.009 A 
ATOM     16  C   UNL     1     111.394 138.542 124.557  1.00  0.00     0.027 A 
ATOM     17  C   UNL     1     111.438 137.251 123.999  1.00  0.00     0.003 A 
ENDROOT
BRANCH   6  18
ATOM     18  C   UNL     1     107.540 132.706 127.141  1.00  0.00     0.230 C 
ATOM     19  O   UNL     1     107.746 133.101 128.296  1.00  0.00    -0.274 OA
ATOM     20  N   UNL     1     107.740 131.366 126.808  1.00  0.00    -0.343 N 
BRANCH  20  21
ATOM     21  C   UNL     1     108.173 130.470 127.886  1.00  0.00     0.116 C 
ATOM     22  C   UNL     1     107.722 129.030 127.689  1.00  0.00     0.027 C 
ENDBRANCH  20  21
BRANCH  20  23
ATOM     23  C   UNL     1     107.503 130.748 125.497  1.00  0.00     0.116 C 
ATOM     24  C   UNL     1     108.722 130.772 124.587  1.00  0.00     0.027 C 
ENDBRANCH  20  23
ENDBRANCH   6  18
BRANCH   2  25
ATOM     25  C   UNL     1     110.543 141.315 126.176  1.00  0.00     0.227 C 
ATOM     26  O   UNL     1     110.671 141.782 127.304  1.00  0.00    -0.274 OA
ATOM     27  C   UNL     1     111.056 141.992 124.950  1.00  0.00     0.115 C 
ENDBRANCH   2  25
TORSDOF 4
ENDMDL
MODEL 2
REMARK VINA RESULT:    -8.180      3.069      5.437
REMARK INTER + INTRA:         -10.769
REMARK INTER:                 -10.329
REMARK INTRA:                  -0.441
REMARK UNBOUND:                -0.677
REMARK SMILES CCN(CC)C(=O)[C@@H]1C=C2c3cccc4c3c(cn4C(C)=O)C[C@H]2N(C)C1
REMARK SMILES IDX 25 1 19 2 24 3 10 4 23 5 8 6 27 7 17 8 11 9 16 10 9 11 15 12
REMARK SMILES IDX 18 13 26 14 12 15 14 16 13 17 6 18 7 19 3 20 2 21 1 22 4 23
REMARK SMILES IDX 5 24 20 25 22 26 21 27
REMARK H PARENT
ROOT
ATOM      1  N   UNL     1     106.775 134.179 128.055  1.00  0.00    -0.298 NA
ATOM      2  N   UNL     1     110.250 138.473 125.504  1.00  0.00    -0.287 N 
ATOM      3  C   UNL     1     107.645 135.343 127.752  1.00  0.00     0.091 C 
ATOM      4  C   UNL     1     107.116 136.662 128.380  1.00  0.00    -0.026 C 
ATOM      5  C   UNL     1     108.033 135.547 126.240  1.00  0.00     0.061 C 
ATOM      6  C   UNL     1     104.911 135.622 128.843  1.00  0.00     0.116 C 
ATOM      7  C   UNL     1     105.345 134.477 127.906  1.00  0.00     0.102 C 
ATOM      8  C   UNL     1     108.848 136.794 126.092  1.00  0.00    -0.019 A 
ATOM      9  C   UNL     1     107.998 137.839 128.238  1.00  0.00    -0.011 A 
ATOM     10  C   UNL     1     108.784 137.807 127.069  1.00  0.00     0.011 A 
ATOM     11  C   UNL     1     105.883 136.771 128.907  1.00  0.00    -0.007 C 
ATOM     12  C   UNL     1     109.649 138.844 126.721  1.00  0.00     0.056 A 
ATOM     13  C   UNL     1     109.739 137.219 125.144  1.00  0.00     0.099 A 
ATOM     14  C   UNL     1     107.152 132.958 127.355  1.00  0.00     0.106 C 
ATOM     15  C   UNL     1     108.096 138.946 129.075  1.00  0.00     0.009 A 
ATOM     16  C   UNL     1     109.744 139.959 127.576  1.00  0.00     0.027 A 
ATOM     17  C   UNL     1     108.963 139.987 128.745  1.00  0.00     0.003 A 
ENDROOT
BRANCH   6  18
ATOM     18  C   UNL     1     103.465 136.055 128.534  1.00  0.00     0.230 C 
ATOM     19  O   UNL     1     103.017 135.809 127.406  1.00  0.00    -0.274 OA
ATOM     20  N   UNL     1     102.685 136.738 129.467  1.00  0.00    -0.343 N 
BRANCH  20  21
ATOM     21  C   UNL     1     101.328 137.113 129.054  1.00  0.00     0.116 C 
ATOM     22  C   UNL     1     100.240 136.388 129.834  1.00  0.00     0.027 C 
ENDBRANCH  20  21
BRANCH  20  23
ATOM     23  C   UNL     1     103.064 137.068 130.847  1.00  0.00     0.116 C 
ATOM     24  C   UNL     1     103.292 138.554 131.073  1.00  0.00     0.027 C 
ENDBRANCH  20  23
ENDBRANCH   6  18
BRANCH   2  25
ATOM     25  C   UNL     1     111.200 139.147 124.702  1.00  0.00     0.227 C 
ATOM     26  O   UNL     1     111.974 138.489 124.012  1.00  0.00    -0.274 OA
ATOM     27  C   UNL     1     111.204 140.638 124.737  1.00  0.00     0.115 C 
ENDBRANCH   2  25
TORSDOF 4
ENDMDL
MODEL 3
REMARK VINA RESULT:    -7.856      3.407      5.474
REMARK INTER + INTRA:         -10.370
REMARK INTER:                  -9.687
REMARK INTRA:                  -0.684
REMARK UNBOUND:                -0.677
REMARK SMILES CCN(CC)C(=O)[C@@H]1C=C2c3cccc4c3c(cn4C(C)=O)C[C@H]2N(C)C1
REMARK SMILES IDX 25 1 19 2 24 3 10 4 23 5 8 6 27 7 17 8 11 9 16 10 9 11 15 12
REMARK SMILES IDX 18 13 26 14 12 15 14 16 13 17 6 18 7 19 3 20 2 21 1 22 4 23
REMARK SMILES IDX 5 24 20 25 22 26 21 27
REMARK H PARENT
ROOT
ATOM      1  N   UNL     1     107.764 130.574 125.786  1.00  0.00    -0.298 NA
ATOM      2  N   UNL     1     107.363 136.302 127.799  1.00  0.00    -0.287 N 
ATOM      3  C   UNL     1     107.411 131.990 126.051  1.00  0.00     0.091 C 
ATOM      4  C   UNL     1     107.284 132.828 124.749  1.00  0.00    -0.026 C 
ATOM      5  C   UNL     1     108.288 132.737 127.125  1.00  0.00     0.061 C 
ATOM      6  C   UNL     1     108.399 131.047 123.430  1.00  0.00     0.116 C 
ATOM      7  C   UNL     1     108.819 130.425 124.777  1.00  0.00     0.102 C 
ATOM      8  C   UNL     1     107.856 134.167 127.226  1.00  0.00    -0.019 A 
ATOM      9  C   UNL     1     106.803 134.214 124.922  1.00  0.00    -0.011 A 
ATOM     10  C   UNL     1     107.160 134.777 126.163  1.00  0.00     0.011 A 
ATOM     11  C   UNL     1     107.703 132.377 123.553  1.00  0.00    -0.007 C 
ATOM     12  C   UNL     1     106.845 136.091 126.507  1.00  0.00     0.056 A 
ATOM     13  C   UNL     1     107.976 135.111 128.209  1.00  0.00     0.099 A 
ATOM     14  C   UNL     1     108.045 129.797 126.986  1.00  0.00     0.106 C 
ATOM     15  C   UNL     1     106.104 135.002 124.011  1.00  0.00     0.009 A 
ATOM     16  C   UNL     1     106.136 136.880 125.581  1.00  0.00     0.027 A 
ATOM     17  C   UNL     1     105.775 136.315 124.344  1.00  0.00     0.003 A 
ENDROOT
BRANCH   6  18
ATOM     18  C   UNL     1     109.584 131.060 122.446  1.00  0.00     0.230 C 
ATOM     19  O   UNL     1     110.522 131.835 122.683  1.00  0.00    -0.274 OA
ATOM     20  N   UNL     1     109.602 130.263 121.301  1.00  0.00    -0.343 N 
BRANCH  20  21
ATOM     21  C   UNL     1     110.778 130.373 120.431  1.00  0.00     0.116 C 
ATOM     22  C   UNL     1     110.967 129.169 119.520  1.00  0.00     0.027 C 
ENDBRANCH  20  21
BRANCH  20  23
ATOM     23  C   UNL     1     108.586 129.278 120.909  1.00  0.00     0.116 C 
ATOM     24  C   UNL     1     107.364 129.897 120.250  1.00  0.00     0.027 C 
ENDBRANCH  20  23
ENDBRANCH   6  18
BRANCH   2  25
ATOM     25  C   UNL     1     107.334 137.447 128.628  1.00  0.00     0.227 C 
ATOM     26  O   UNL     1     108.377 138.059 128.838  1.00  0.00    -0.274 OA
ATOM     27  C   UNL     1     106.019 137.854 129.202  1.00  0.00     0.115 C 
ENDBRANCH   2  25
TORSDOF 4
ENDMDL
MODEL 4
REMARK VINA RESULT:    -7.390      3.550      6.136
REMARK INTER + INTRA:          -9.796
REMARK INTER:                  -9.406
REMARK INTRA:                  -0.390
REMARK UNBOUND:                -0.677
REMARK SMILES CCN(CC)C(=O)[C@@H]1C=C2c3cccc4c3c(cn4C(C)=O)C[C@H]2N(C)C1
REMARK SMILES IDX 25 1 19 2 24 3 10 4 23 5 8 6 27 7 17 8 11 9 16 10 9 11 15 12
REMARK SMILES IDX 18 13 26 14 12 15 14 16 13 17 6 18 7 19 3 20 2 21 1 22 4 23
REMARK SMILES IDX 5 24 20 25 22 26 21 27
REMARK H PARENT
ROOT
ATOM      1  N   UNL     1     105.993 135.466 128.510  1.00  0.00    -0.298 NA
ATOM      2  N   UNL     1     110.396 138.178 125.304  1.00  0.00    -0.287 N 
ATOM      3  C   UNL     1     107.145 136.267 128.029  1.00  0.00     0.091 C 
ATOM      4  C   UNL     1     107.080 137.747 128.496  1.00  0.00    -0.026 C 
ATOM      5  C   UNL     1     107.466 136.170 126.490  1.00  0.00     0.061 C 
ATOM      6  C   UNL     1     104.705 137.489 129.166  1.00  0.00     0.116 C 
ATOM      7  C   UNL     1     104.710 136.167 128.372  1.00  0.00     0.102 C 
ATOM      8  C   UNL     1     108.603 137.084 126.153  1.00  0.00    -0.019 A 
ATOM      9  C   UNL     1     108.260 138.576 128.172  1.00  0.00    -0.011 A 
ATOM     10  C   UNL     1     108.914 138.173 126.992  1.00  0.00     0.011 A 
ATOM     11  C   UNL     1     105.977 138.287 129.047  1.00  0.00    -0.007 C 
ATOM     12  C   UNL     1     110.022 138.850 126.482  1.00  0.00     0.056 A 
ATOM     13  C   UNL     1     109.510 137.107 125.128  1.00  0.00     0.099 A 
ATOM     14  C   UNL     1     105.937 134.118 127.963  1.00  0.00     0.106 C 
ATOM     15  C   UNL     1     108.744 139.688 128.855  1.00  0.00     0.009 A 
ATOM     16  C   UNL     1     110.507 139.973 127.180  1.00  0.00     0.027 A 
ATOM     17  C   UNL     1     109.855 140.371 128.362  1.00  0.00     0.003 A 
ENDROOT
BRANCH   6  18
ATOM     18  C   UNL     1     103.436 138.304 128.853  1.00  0.00     0.230 C 
ATOM     19  O   UNL     1     103.425 138.981 127.816  1.00  0.00    -0.274 OA
ATOM     20  N   UNL     1     102.340 138.322 129.716  1.00  0.00    -0.343 N 
BRANCH  20  21
ATOM     21  C   UNL     1     101.194 139.147 129.320  1.00  0.00     0.116 C 
ATOM     22  C   UNL     1     101.098 140.455 130.093  1.00  0.00     0.027 C 
ENDBRANCH  20  21
BRANCH  20  23
ATOM     23  C   UNL     1     102.193 137.549 130.956  1.00  0.00     0.116 C 
ATOM     24  C   UNL     1     100.852 136.842 131.074  1.00  0.00     0.027 C 
ENDBRANCH  20  23
ENDBRANCH   6  18
BRANCH   2  25
ATOM     25  C   UNL     1     111.443 138.435 124.389  1.00  0.00     0.227 C 
ATOM     26  O   UNL     1     111.835 137.528 123.660  1.00  0.00    -0.274 OA
ATOM     27  C   UNL     1     112.015 139.812 124.358  1.00  0.00     0.115 C 
ENDBRANCH   2  25
TORSDOF 4
ENDMDL
MODEL 5
REMARK VINA RESULT:    -7.200      3.138      7.665
REMARK INTER + INTRA:          -9.561
REMARK INTER:                  -9.582
REMARK INTRA:                   0.021
REMARK UNBOUND:                -0.677
REMARK SMILES CCN(CC)C(=O)[C@@H]1C=C2c3cccc4c3c(cn4C(C)=O)C[C@H]2N(C)C1
REMARK SMILES IDX 25 1 19 2 24 3 10 4 23 5 8 6 27 7 17 8 11 9 16 10 9 11 15 12
REMARK SMILES IDX 18 13 26 14 12 15 14 16 13 17 6 18 7 19 3 20 2 21 1 22 4 23
REMARK SMILES IDX 5 24 20 25 22 26 21 27
REMARK H PARENT
ROOT
ATOM      1  N   UNL     1     107.710 140.003 127.413  1.00  0.00    -0.298 NA
ATOM      2  N   UNL     1     103.579 135.539 127.565  1.00  0.00    -0.287 N 
ATOM      3  C   UNL     1     106.915 138.779 127.680  1.00  0.00     0.091 C 
ATOM      4  C   UNL     1     107.772 137.485 127.618  1.00  0.00    -0.026 C 
ATOM      5  C   UNL     1     105.583 138.620 126.854  1.00  0.00     0.061 C 
ATOM      6  C   UNL     1     109.634 138.705 126.522  1.00  0.00     0.116 C 
ATOM      7  C   UNL     1     108.632 139.852 126.280  1.00  0.00     0.102 C 
ATOM      8  C   UNL     1     104.937 137.311 127.185  1.00  0.00    -0.019 A 
ATOM      9  C   UNL     1     107.081 136.238 128.006  1.00  0.00    -0.011 A 
ATOM     10  C   UNL     1     105.700 136.257 127.727  1.00  0.00     0.011 A 
ATOM     11  C   UNL     1     109.023 137.466 127.122  1.00  0.00    -0.007 C 
ATOM     12  C   UNL     1     104.872 135.162 127.973  1.00  0.00     0.056 A 
ATOM     13  C   UNL     1     103.651 136.853 127.087  1.00  0.00     0.099 A 
ATOM     14  C   UNL     1     106.914 141.218 127.307  1.00  0.00     0.106 C 
ATOM     15  C   UNL     1     107.633 135.083 128.552  1.00  0.00     0.009 A 
ATOM     16  C   UNL     1     105.438 133.998 128.528  1.00  0.00     0.027 A 
ATOM     17  C   UNL     1     106.816 133.983 128.811  1.00  0.00     0.003 A 
ENDROOT
BRANCH   6  18
ATOM     18  C   UNL     1     110.459 138.430 125.250  1.00  0.00     0.230 C 
ATOM     19  O   UNL     1     110.250 137.369 124.645  1.00  0.00    -0.274 OA
ATOM     20  N   UNL     1     111.439 139.315 124.802  1.00  0.00    -0.343 N 
BRANCH  20  21
ATOM     21  C   UNL     1     112.171 138.938 123.587  1.00  0.00     0.116 C 
ATOM     22  C   UNL     1     112.923 140.100 122.954  1.00  0.00     0.027 C 
ENDBRANCH  20  21
BRANCH  20  23
ATOM     23  C   UNL     1     111.773 140.618 125.390  1.00  0.00     0.116 C 
ATOM     24  C   UNL     1     110.877 141.748 124.908  1.00  0.00     0.027 C 
ENDBRANCH  20  23
ENDBRANCH   6  18
BRANCH   2  25
ATOM     25  C   UNL     1     102.360 134.821 127.586  1.00  0.00     0.227 C 
ATOM     26  O   UNL     1     102.195 133.901 126.790  1.00  0.00    -0.274 OA
ATOM     27  C   UNL     1     101.334 135.226 128.590  1.00  0.00     0.115 C 
ENDBRANCH   2  25
TORSDOF 4
ENDMDL
MODEL 6
REMARK VINA RESULT:    -7.113      3.597      7.172
REMARK INTER + INTRA:          -9.454
REMARK INTER:                  -8.871
REMARK INTRA:                  -0.583
REMARK UNBOUND:                -0.677
REMARK SMILES CCN(CC)C(=O)[C@@H]1C=C2c3cccc4c3c(cn4C(C)=O)C[C@H]2N(C)C1
REMARK SMILES IDX 25 1 19 2 24 3 10 4 23 5 8 6 27 7 17 8 11 9 16 10 9 11 15 12
REMARK SMILES IDX 18 13 26 14 12 15 14 16 13 17 6 18 7 19 3 20 2 21 1 22 4 23
REMARK SMILES IDX 5 24 20 25 22 26 21 27
REMARK H PARENT
ROOT
ATOM      1  N   UNL     1     106.491 133.746 128.737  1.00  0.00    -0.298 NA
ATOM      2  N   UNL     1     108.412 131.709 123.335  1.00  0.00    -0.287 N 
ATOM      3  C   UNL     1     107.205 133.481 127.464  1.00  0.00     0.091 C 
ATOM      4  C   UNL     1     107.513 134.781 126.671  1.00  0.00    -0.026 C 
ATOM      5  C   UNL     1     106.578 132.380 126.529  1.00  0.00     0.061 C 
ATOM      6  C   UNL     1     105.943 136.081 128.086  1.00  0.00     0.116 C 
ATOM      7  C   UNL     1     105.409 134.728 128.594  1.00  0.00     0.102 C 
ATOM      8  C   UNL     1     107.369 132.282 125.262  1.00  0.00    -0.019 A 
ATOM      9  C   UNL     1     108.342 134.613 125.459  1.00  0.00    -0.011 A 
ATOM     10  C   UNL     1     108.173 133.359 124.839  1.00  0.00     0.011 A 
ATOM     11  C   UNL     1     106.963 135.969 126.982  1.00  0.00    -0.007 C 
ATOM     12  C   UNL     1     108.826 133.015 123.656  1.00  0.00     0.056 A 
ATOM     13  C   UNL     1     107.521 131.290 124.331  1.00  0.00     0.099 A 
ATOM     14  C   UNL     1     106.047 132.544 129.430  1.00  0.00     0.106 C 
ATOM     15  C   UNL     1     109.198 135.537 124.867  1.00  0.00     0.009 A 
ATOM     16  C   UNL     1     109.693 133.955 123.066  1.00  0.00     0.027 A 
ATOM     17  C   UNL     1     109.865 135.204 123.689  1.00  0.00     0.003 A 
ENDROOT
BRANCH   6  18
ATOM     18  C   UNL     1     104.779 137.033 127.752  1.00  0.00     0.230 C 
ATOM     19  O   UNL     1     104.159 136.840 126.697  1.00  0.00    -0.274 OA
ATOM     20  N   UNL     1     104.443 138.105 128.580  1.00  0.00    -0.343 N 
BRANCH  20  21
ATOM     21  C   UNL     1     103.324 138.952 128.151  1.00  0.00     0.116 C 
ATOM     22  C   UNL     1     102.549 139.558 129.312  1.00  0.00     0.027 C 
ENDBRANCH  20  21
BRANCH  20  23
ATOM     23  C   UNL     1     105.058 138.436 129.871  1.00  0.00     0.116 C 
ATOM     24  C   UNL     1     106.322 139.272 129.742  1.00  0.00     0.027 C 
ENDBRANCH  20  23
ENDBRANCH   6  18
BRANCH   2  25
ATOM     25  C   UNL     1     108.757 130.874 122.247  1.00  0.00     0.227 C 
ATOM     26  O   UNL     1     107.872 130.254 121.665  1.00  0.00    -0.274 OA
ATOM     27  C   UNL     1     110.196 130.798 121.861  1.00  0.00     0.115 C 
ENDBRANCH   2  25
TORSDOF 4
ENDMDL
MODEL 7
REMARK VINA RESULT:    -7.049      2.154      7.202
REMARK INTER + INTRA:          -9.375
REMARK INTER:                  -9.570
REMARK INTRA:                   0.196
REMARK UNBOUND:                -0.677
REMARK SMILES CCN(CC)C(=O)[C@@H]1C=C2c3cccc4c3c(cn4C(C)=O)C[C@H]2N(C)C1
REMARK SMILES IDX 25 1 19 2 24 3 10 4 23 5 8 6 27 7 17 8 11 9 16 10 9 11 15 12
REMARK SMILES IDX 18 13 26 14 12 15 14 16 13 17 6 18 7 19 3 20 2 21 1 22 4 23
REMARK SMILES IDX 5 24 20 25 22 26 21 27
REMARK H PARENT
ROOT
ATOM      1  N   UNL     1     105.370 136.125 125.976  1.00  0.00    -0.298 NA
ATOM      2  N   UNL     1     108.496 131.254 124.096  1.00  0.00    -0.287 N 
ATOM      3  C   UNL     1     106.059 134.819 125.829  1.00  0.00     0.091 C 
ATOM      4  C   UNL     1     106.994 134.499 127.027  1.00  0.00    -0.026 C 
ATOM      5  C   UNL     1     106.788 134.568 124.456  1.00  0.00     0.061 C 
ATOM      6  C   UNL     1     106.873 136.847 127.821  1.00  0.00     0.116 C 
ATOM      7  C   UNL     1     106.261 137.193 126.449  1.00  0.00     0.102 C 
ATOM      8  C   UNL     1     107.489 133.245 124.491  1.00  0.00    -0.019 A 
ATOM      9  C   UNL     1     107.611 133.156 127.020  1.00  0.00    -0.011 A 
ATOM     10  C   UNL     1     107.827 132.651 125.723  1.00  0.00     0.011 A 
ATOM     11  C   UNL     1     107.331 135.418 127.951  1.00  0.00    -0.007 C 
ATOM     12  C   UNL     1     108.442 131.420 125.492  1.00  0.00     0.056 A 
ATOM     13  C   UNL     1     107.909 132.385 123.512  1.00  0.00     0.099 A 
ATOM     14  C   UNL     1     104.609 136.531 124.803  1.00  0.00     0.106 C 
ATOM     15  C   UNL     1     108.023 132.392 128.108  1.00  0.00     0.009 A 
ATOM     16  C   UNL     1     108.853 130.653 126.599  1.00  0.00     0.027 A 
ATOM     17  C   UNL     1     108.631 131.156 127.894  1.00  0.00     0.003 A 
ENDROOT
BRANCH   6  18
ATOM     18  C   UNL     1     107.951 137.877 128.208  1.00  0.00     0.230 C 
ATOM     19  O   UNL     1     107.809 138.488 129.276  1.00  0.00    -0.274 OA
ATOM     20  N   UNL     1     109.038 138.153 127.378  1.00  0.00    -0.343 N 
BRANCH  20  21
ATOM     21  C   UNL     1     109.992 139.165 127.846  1.00  0.00     0.116 C 
ATOM     22  C   UNL     1     109.589 140.586 127.479  1.00  0.00     0.027 C 
ENDBRANCH  20  21
BRANCH  20  23
ATOM     23  C   UNL     1     109.357 137.489 126.108  1.00  0.00     0.116 C 
ATOM     24  C   UNL     1     110.300 138.291 125.226  1.00  0.00     0.027 C 
ENDBRANCH  20  23
ENDBRANCH   6  18
BRANCH   2  25
ATOM     25  C   UNL     1     109.014 130.198 123.312  1.00  0.00     0.227 C 
ATOM     26  O   UNL     1     109.561 129.251 123.871  1.00  0.00    -0.274 OA
ATOM     27  C   UNL     1     108.859 130.293 121.831  1.00  0.00     0.115 C 
ENDBRANCH   2  25
TORSDOF 4
ENDMDL
MODEL 8
REMARK VINA RESULT:    -6.837      4.367      8.193
REMARK INTER + INTRA:          -9.113
REMARK INTER:                  -8.531
REMARK INTRA:                  -0.581
REMARK UNBOUND:                -0.677
REMARK SMILES CCN(CC)C(=O)[C@@H]1C=C2c3cccc4c3c(cn4C(C)=O)C[C@H]2N(C)C1
REMARK SMILES IDX 25 1 19 2 24 3 10 4 23 5 8 6 27 7 17 8 11 9 16 10 9 11 15 12
REMARK SMILES IDX 18 13 26 14 12 15 14 16 13 17 6 18 7 19 3 20 2 21 1 22 4 23
REMARK SMILES IDX 5 24 20 25 22 26 21 27
REMARK H PARENT
ROOT
ATOM      1  N   UNL     1     108.507 131.314 125.208  1.00  0.00    -0.298 NA
ATOM      2  N   UNL     1     110.831 129.937 119.756  1.00  0.00    -0.287 N 
ATOM      3  C   UNL     1     109.313 131.204 123.968  1.00  0.00     0.091 C 
ATOM      4  C   UNL     1     109.665 132.589 123.359  1.00  0.00    -0.026 C 
ATOM      5  C   UNL     1     108.765 130.221 122.866  1.00  0.00     0.061 C 
ATOM      6  C   UNL     1     107.985 133.710 124.801  1.00  0.00     0.116 C 
ATOM      7  C   UNL     1     107.428 132.305 125.105  1.00  0.00     0.102 C 
ATOM      8  C   UNL     1     109.646 130.275 121.657  1.00  0.00    -0.019 A 
ATOM      9  C   UNL     1     110.580 132.567 122.199  1.00  0.00    -0.011 A 
ATOM     10  C   UNL     1     110.468 131.396 121.424  1.00  0.00     0.011 A 
ATOM     11  C   UNL     1     109.083 133.731 123.769  1.00  0.00    -0.007 C 
ATOM     12  C   UNL     1     111.208 131.196 120.259  1.00  0.00     0.056 A 
ATOM     13  C   UNL     1     109.874 129.401 120.628  1.00  0.00     0.099 A 
ATOM     14  C   UNL     1     108.025 130.038 125.720  1.00  0.00     0.106 C 
ATOM     15  C   UNL     1     111.468 133.556 121.785  1.00  0.00     0.009 A 
ATOM     16  C   UNL     1     112.106 132.200 119.849  1.00  0.00     0.027 A 
ATOM     17  C   UNL     1     112.221 133.366 120.627  1.00  0.00     0.003 A 
ENDROOT
BRANCH   6  18
ATOM     18  C   UNL     1     106.839 134.694 124.499  1.00  0.00     0.230 C 
ATOM     19  O   UNL     1     106.484 134.822 123.319  1.00  0.00    -0.274 OA
ATOM     20  N   UNL     1     106.234 135.451 125.503  1.00  0.00    -0.343 N 
BRANCH  20  21
ATOM     21  C   UNL     1     105.163 136.366 125.093  1.00  0.00     0.116 C 
ATOM     22  C   UNL     1     104.323 136.869 126.258  1.00  0.00     0.027 C 
ENDBRANCH  20  21
BRANCH  20  23
ATOM     23  C   UNL     1     106.522 135.382 126.941  1.00  0.00     0.116 C 
ATOM     24  C   UNL     1     107.748 136.182 127.352  1.00  0.00     0.027 C 
ENDBRANCH  20  23
ENDBRANCH   6  18
BRANCH   2  25
ATOM     25  C   UNL     1     111.261 129.238 118.604  1.00  0.00     0.227 C 
ATOM     26  O   UNL     1     110.424 128.847 117.795  1.00  0.00    -0.274 OA
ATOM     27  C   UNL     1     112.726 129.016 118.435  1.00  0.00     0.115 C 
ENDBRANCH   2  25
TORSDOF 4
ENDMDL
MODEL 9
REMARK VINA RESULT:    -6.712      3.353      7.173
REMARK INTER + INTRA:          -8.959
REMARK INTER:                  -8.299
REMARK INTRA:                  -0.660
REMARK UNBOUND:                -0.677
REMARK SMILES CCN(CC)C(=O)[C@@H]1C=C2c3cccc4c3c(cn4C(C)=O)C[C@H]2N(C)C1
REMARK SMILES IDX 25 1 19 2 24 3 10 4 23 5 8 6 27 7 17 8 11 9 16 10 9 11 15 12
REMARK SMILES IDX 18 13 26 14 12 15 14 16 13 17 6 18 7 19 3 20 2 21 1 22 4 23
REMARK SMILES IDX 5 24 20 25 22 26 21 27
REMARK H PARENT
ROOT
ATOM      1  N   UNL     1     107.012 133.626 128.173  1.00  0.00    -0.298 NA
ATOM      2  N   UNL     1     108.767 131.448 122.769  1.00  0.00    -0.287 N 
ATOM      3  C   UNL     1     107.696 133.316 126.893  1.00  0.00     0.091 C 
ATOM      4  C   UNL     1     108.051 134.592 126.082  1.00  0.00    -0.026 C 
ATOM      5  C   UNL     1     107.007 132.234 125.980  1.00  0.00     0.061 C 
ATOM      6  C   UNL     1     106.559 135.976 127.502  1.00  0.00     0.116 C 
ATOM      7  C   UNL     1     105.972 134.653 128.033  1.00  0.00     0.102 C 
ATOM      8  C   UNL     1     107.776 132.087 124.703  1.00  0.00    -0.019 A 
ATOM      9  C   UNL     1     108.854 134.374 124.861  1.00  0.00    -0.011 A 
ATOM     10  C   UNL     1     108.621 133.123 124.258  1.00  0.00     0.011 A 
ATOM     11  C   UNL     1     107.558 135.807 126.387  1.00  0.00    -0.007 C 
ATOM     12  C   UNL     1     109.243 132.737 123.070  1.00  0.00     0.056 A 
ATOM     13  C   UNL     1     107.872 131.079 123.782  1.00  0.00     0.099 A 
ATOM     14  C   UNL     1     106.524 132.452 128.885  1.00  0.00     0.106 C 
ATOM     15  C   UNL     1     109.743 135.253 124.247  1.00  0.00     0.009 A 
ATOM     16  C   UNL     1     110.142 133.631 122.458  1.00  0.00     0.027 A 
ATOM     17  C   UNL     1     110.378 134.879 123.064  1.00  0.00     0.003 A 
ENDROOT
BRANCH   6  18
ATOM     18  C   UNL     1     105.434 136.975 127.173  1.00  0.00     0.230 C 
ATOM     19  O   UNL     1     104.768 136.777 126.148  1.00  0.00    -0.274 OA
ATOM     20  N   UNL     1     105.183 138.092 127.971  1.00  0.00    -0.343 N 
BRANCH  20  21
ATOM     21  C   UNL     1     104.094 138.980 127.549  1.00  0.00     0.116 C 
ATOM     22  C   UNL     1     103.148 139.351 128.682  1.00  0.00     0.027 C 
ENDBRANCH  20  21
BRANCH  20  23
ATOM     23  C   UNL     1     105.861 138.437 129.227  1.00  0.00     0.116 C 
ATOM     24  C   UNL     1     107.223 139.082 129.023  1.00  0.00     0.027 C 
ENDBRANCH  20  23
ENDBRANCH   6  18
BRANCH   2  25
ATOM     25  C   UNL     1     109.059 130.587 121.686  1.00  0.00     0.227 C 
ATOM     26  O   UNL     1     110.230 130.306 121.445  1.00  0.00    -0.274 OA
ATOM     27  C   UNL     1     107.913 130.059 120.891  1.00  0.00     0.115 C 
ENDBRANCH   2  25
TORSDOF 4
ENDMDL
MODEL 10
REMARK VINA RESULT:    -6.691      4.208      6.486
REMARK INTER + INTRA:          -8.932
REMARK INTER:                  -8.245
REMARK INTRA:                  -0.687
REMARK UNBOUND:                -0.677
REMARK SMILES CCN(CC)C(=O)[C@@H]1C=C2c3cccc4c3c(cn4C(C)=O)C[C@H]2N(C)C1
REMARK SMILES IDX 25 1 19 2 24 3 10 4 23 5 8 6 27 7 17 8 11 9 16 10 9 11 15 12
REMARK SMILES IDX 18 13 26 14 12 15 14 16 13 17 6 18 7 19 3 20 2 21 1 22 4 23
REMARK SMILES IDX 5 24 20 25 22 26 21 27
REMARK H PARENT
ROOT
ATOM      1  N   UNL     1     108.364 138.240 128.477  1.00  0.00    -0.298 NA
ATOM      2  N   UNL     1     102.808 140.494 129.515  1.00  0.00    -0.287 N 
ATOM      3  C   UNL     1     106.971 138.505 128.913  1.00  0.00     0.091 C 
ATOM      4  C   UNL     1     106.034 137.286 128.690  1.00  0.00    -0.026 C 
ATOM      5  C   UNL     1     106.315 139.833 128.379  1.00  0.00     0.061 C 
ATOM      6  C   UNL     1     107.712 136.194 127.225  1.00  0.00     0.116 C 
ATOM      7  C   UNL     1     108.438 137.553 127.181  1.00  0.00     0.102 C 
ATOM      8  C   UNL     1     104.895 139.919 128.847  1.00  0.00    -0.019 A 
ATOM      9  C   UNL     1     104.663 137.424 129.224  1.00  0.00    -0.011 A 
ATOM     10  C   UNL     1     104.201 138.755 129.233  1.00  0.00     0.011 A 
ATOM     11  C   UNL     1     106.392 136.221 127.950  1.00  0.00    -0.007 C 
ATOM     12  C   UNL     1     102.916 139.098 129.654  1.00  0.00     0.056 A 
ATOM     13  C   UNL     1     104.031 140.966 129.019  1.00  0.00     0.099 A 
ATOM     14  C   UNL     1     109.234 139.408 128.524  1.00  0.00     0.106 C 
ATOM     15  C   UNL     1     103.803 136.419 129.658  1.00  0.00     0.009 A 
ATOM     16  C   UNL     1     102.054 138.075 130.093  1.00  0.00     0.027 A 
ATOM     17  C   UNL     1     102.519 136.747 130.089  1.00  0.00     0.003 A 
ENDROOT
BRANCH   6  18
ATOM     18  C   UNL     1     107.627 135.580 125.815  1.00  0.00     0.230 C 
ATOM     19  O   UNL     1     107.488 136.353 124.856  1.00  0.00    -0.274 OA
ATOM     20  N   UNL     1     107.664 134.201 125.607  1.00  0.00    -0.343 N 
BRANCH  20  21
ATOM     21  C   UNL     1     107.558 133.733 124.221  1.00  0.00     0.116 C 
ATOM     22  C   UNL     1     108.099 132.325 124.019  1.00  0.00     0.027 C 
ENDBRANCH  20  21
BRANCH  20  23
ATOM     23  C   UNL     1     107.858 133.169 126.634  1.00  0.00     0.116 C 
ATOM     24  C   UNL     1     106.556 132.619 127.193  1.00  0.00     0.027 C 
ENDBRANCH  20  23
ENDBRANCH   6  18
BRANCH   2  25
ATOM     25  C   UNL     1     101.731 141.368 129.792  1.00  0.00     0.227 C 
ATOM     26  O   UNL     1     100.900 141.587 128.915  1.00  0.00    -0.274 OA
ATOM     27  C   UNL     1     101.664 141.977 131.151  1.00  0.00     0.115 C 
ENDBRANCH   2  25
TORSDOF 4
ENDMDL
MODEL 11
REMARK VINA RESULT:    -6.664      3.314      8.351
REMARK INTER + INTRA:          -8.900
REMARK INTER:                  -8.485
REMARK INTRA:                  -0.415
REMARK UNBOUND:                -0.677
REMARK SMILES CCN(CC)C(=O)[C@@H]1C=C2c3cccc4c3c(cn4C(C)=O)C[C@H]2N(C)C1
REMARK SMILES IDX 25 1 19 2 24 3 10 4 23 5 8 6 27 7 17 8 11 9 16 10 9 11 15 12
REMARK SMILES IDX 18 13 26 14 12 15 14 16 13 17 6 18 7 19 3 20 2 21 1 22 4 23
REMARK SMILES IDX 5 24 20 25 22 26 21 27
REMARK H PARENT
ROOT
ATOM      1  N   UNL     1     104.636 139.078 130.265  1.00  0.00    -0.298 NA
ATOM      2  N   UNL     1     102.976 133.860 127.611  1.00  0.00    -0.287 N 
ATOM      3  C   UNL     1     104.534 137.697 129.731  1.00  0.00     0.091 C 
ATOM      4  C   UNL     1     105.804 137.265 128.948  1.00  0.00    -0.026 C 
ATOM      5  C   UNL     1     103.225 137.358 128.925  1.00  0.00     0.061 C 
ATOM      6  C   UNL     1     106.608 139.610 128.848  1.00  0.00     0.116 C 
ATOM      7  C   UNL     1     105.192 140.029 129.294  1.00  0.00     0.102 C 
ATOM      8  C   UNL     1     103.305 135.960 128.396  1.00  0.00    -0.019 A 
ATOM      9  C   UNL     1     105.834 135.857 128.502  1.00  0.00    -0.011 A 
ATOM     10  C   UNL     1     104.555 135.329 128.239  1.00  0.00     0.011 A 
ATOM     11  C   UNL     1     106.761 138.136 128.581  1.00  0.00    -0.007 C 
ATOM     12  C   UNL     1     104.364 134.032 127.762  1.00  0.00     0.056 A 
ATOM     13  C   UNL     1     102.356 135.054 128.003  1.00  0.00     0.099 A 
ATOM     14  C   UNL     1     103.407 139.574 130.869  1.00  0.00     0.106 C 
ATOM     15  C   UNL     1     106.946 135.048 128.280  1.00  0.00     0.009 A 
ATOM     16  C   UNL     1     105.494 133.220 127.544  1.00  0.00     0.027 A 
ATOM     17  C   UNL     1     106.770 133.747 127.812  1.00  0.00     0.003 A 
ENDROOT
BRANCH   6  18
ATOM     18  C   UNL     1     107.095 140.500 127.689  1.00  0.00     0.230 C 
ATOM     19  O   UNL     1     106.239 141.070 126.999  1.00  0.00    -0.274 OA
ATOM     20  N   UNL     1     108.450 140.640 127.387  1.00  0.00    -0.343 N 
BRANCH  20  21
ATOM     21  C   UNL     1     108.793 141.502 126.250  1.00  0.00     0.116 C 
ATOM     22  C   UNL     1     110.248 141.949 126.252  1.00  0.00     0.027 C 
ENDBRANCH  20  21
BRANCH  20  23
ATOM     23  C   UNL     1     109.575 140.058 128.130  1.00  0.00     0.116 C 
ATOM     24  C   UNL     1     110.000 138.693 127.614  1.00  0.00     0.027 C 
ENDBRANCH  20  23
ENDBRANCH   6  18
BRANCH   2  25
ATOM     25  C   UNL     1     102.228 132.748 127.161  1.00  0.00     0.227 C 
ATOM     26  O   UNL     1     102.600 131.617 127.461  1.00  0.00    -0.274 OA
ATOM     27  C   UNL     1     101.011 133.016 126.341  1.00  0.00     0.115 C 
ENDBRANCH   2  25
TORSDOF 4
ENDMDL
MODEL 12
REMARK VINA RESULT:    -6.604      2.494      4.333
REMARK INTER + INTRA:          -8.825
REMARK INTER:                  -8.660
REMARK INTRA:                  -0.165
REMARK UNBOUND:                -0.677
REMARK SMILES CCN(CC)C(=O)[C@@H]1C=C2c3cccc4c3c(cn4C(C)=O)C[C@H]2N(C)C1
REMARK SMILES IDX 25 1 19 2 24 3 10 4 23 5 8 6 27 7 17 8 11 9 16 10 9 11 15 12
REMARK SMILES IDX 18 13 26 14 12 15 14 16 13 17 6 18 7 19 3 20 2 21 1 22 4 23
REMARK SMILES IDX 5 24 20 25 22 26 21 27
REMARK H PARENT
ROOT
ATOM      1  N   UNL     1     107.513 133.926 126.905  1.00  0.00    -0.298 NA
ATOM      2  N   UNL     1     110.360 139.098 125.433  1.00  0.00    -0.287 N 
ATOM      3  C   UNL     1     108.204 135.238 126.883  1.00  0.00     0.091 C 
ATOM      4  C   UNL     1     107.470 136.314 127.730  1.00  0.00    -0.026 C 
ATOM      5  C   UNL     1     108.590 135.798 125.463  1.00  0.00     0.061 C 
ATOM      6  C   UNL     1     105.436 134.900 127.864  1.00  0.00     0.116 C 
ATOM      7  C   UNL     1     106.058 134.042 126.744  1.00  0.00     0.102 C 
ATOM      8  C   UNL     1     109.213 137.152 125.605  1.00  0.00    -0.019 A 
ATOM      9  C   UNL     1     108.169 137.609 127.868  1.00  0.00    -0.011 A 
ATOM     10  C   UNL     1     108.976 137.927 126.759  1.00  0.00     0.011 A 
ATOM     11  C   UNL     1     106.223 136.138 128.204  1.00  0.00    -0.007 C 
ATOM     12  C   UNL     1     109.684 139.125 126.667  1.00  0.00     0.056 A 
ATOM     13  C   UNL     1     110.051 137.883 124.807  1.00  0.00     0.099 A 
ATOM     14  C   UNL     1     108.083 132.938 125.999  1.00  0.00     0.106 C 
ATOM     15  C   UNL     1     108.082 138.526 128.912  1.00  0.00     0.009 A 
ATOM     16  C   UNL     1     109.592 140.046 127.728  1.00  0.00     0.027 A 
ATOM     17  C   UNL     1     108.790 139.725 128.838  1.00  0.00     0.003 A 
ENDROOT
BRANCH   6  18
ATOM     18  C   UNL     1     103.949 135.176 127.573  1.00  0.00     0.230 C 
ATOM     19  O   UNL     1     103.601 136.354 127.413  1.00  0.00    -0.274 OA
ATOM     20  N   UNL     1     103.004 134.151 127.525  1.00  0.00    -0.343 N 
BRANCH  20  21
ATOM     21  C   UNL     1     101.615 134.538 127.254  1.00  0.00     0.116 C 
ATOM     22  C   UNL     1     100.889 135.067 128.482  1.00  0.00     0.027 C 
ENDBRANCH  20  21
BRANCH  20  23
ATOM     23  C   UNL     1     103.270 132.713 127.659  1.00  0.00     0.116 C 
ATOM     24  C   UNL     1     102.134 131.838 127.153  1.00  0.00     0.027 C 
ENDBRANCH  20  23
ENDBRANCH   6  18
BRANCH   2  25
ATOM     25  C   UNL     1     111.216 140.048 124.830  1.00  0.00     0.227 C 
ATOM     26  O   UNL     1     110.895 141.233 124.839  1.00  0.00    -0.274 OA
ATOM     27  C   UNL     1     112.479 139.550 124.212  1.00  0.00     0.115 C 
ENDBRANCH   2  25
TORSDOF 4
ENDMDL
MODEL 13
REMARK VINA RESULT:    -6.576      3.199      5.317
REMARK INTER + INTRA:          -8.791
REMARK INTER:                  -8.045
REMARK INTRA:                  -0.746
REMARK UNBOUND:                -0.677
REMARK SMILES CCN(CC)C(=O)[C@@H]1C=C2c3cccc4c3c(cn4C(C)=O)C[C@H]2N(C)C1
REMARK SMILES IDX 25 1 19 2 24 3 10 4 23 5 8 6 27 7 17 8 11 9 16 10 9 11 15 12
REMARK SMILES IDX 18 13 26 14 12 15 14 16 13 17 6 18 7 19 3 20 2 21 1 22 4 23
REMARK SMILES IDX 5 24 20 25 22 26 21 27
REMARK H PARENT
ROOT
ATOM      1  N   UNL     1     109.186 136.728 126.022  1.00  0.00    -0.298 NA
ATOM      2  N   UNL     1     104.120 138.991 128.521  1.00  0.00    -0.287 N 
ATOM      3  C   UNL     1     108.023 137.059 126.882  1.00  0.00     0.091 C 
ATOM      4  C   UNL     1     107.255 135.797 127.361  1.00  0.00    -0.026 C 
ATOM      5  C   UNL     1     107.033 138.149 126.323  1.00  0.00     0.061 C 
ATOM      6  C   UNL     1     108.428 134.383 125.693  1.00  0.00     0.116 C 
ATOM      7  C   UNL     1     108.884 135.695 125.023  1.00  0.00     0.102 C 
ATOM      8  C   UNL     1     105.883 138.319 127.267  1.00  0.00    -0.019 A 
ATOM      9  C   UNL     1     106.167 136.037 128.331  1.00  0.00    -0.011 A 
ATOM     10  C   UNL     1     105.552 137.295 128.177  1.00  0.00     0.011 A 
ATOM     11  C   UNL     1     107.471 134.575 126.841  1.00  0.00    -0.007 C 
ATOM     12  C   UNL     1     104.471 137.701 128.960  1.00  0.00     0.056 A 
ATOM     13  C   UNL     1     104.998 139.340 127.486  1.00  0.00     0.099 A 
ATOM     14  C   UNL     1     109.834 137.888 125.427  1.00  0.00     0.106 C 
ATOM     15  C   UNL     1     105.677 135.173 129.307  1.00  0.00     0.009 A 
ATOM     16  C   UNL     1     103.984 136.822 129.946  1.00  0.00     0.027 A 
ATOM     17  C   UNL     1     104.603 135.568 130.103  1.00  0.00     0.003 A 
ENDROOT
BRANCH   6  18
ATOM     18  C   UNL     1     107.927 133.381 124.636  1.00  0.00     0.230 C 
ATOM     19  O   UNL     1     107.330 133.833 123.649  1.00  0.00    -0.274 OA
ATOM     20  N   UNL     1     108.097 132.004 124.786  1.00  0.00    -0.343 N 
BRANCH  20  21
ATOM     21  C   UNL     1     107.564 131.148 123.721  1.00  0.00     0.116 C 
ATOM     22  C   UNL     1     108.648 130.525 122.852  1.00  0.00     0.027 C 
ENDBRANCH  20  21
BRANCH  20  23
ATOM     23  C   UNL     1     108.809 131.327 125.877  1.00  0.00     0.116 C 
ATOM     24  C   UNL     1     107.948 130.331 126.636  1.00  0.00     0.027 C 
ENDBRANCH  20  23
ENDBRANCH   6  18
BRANCH   2  25
ATOM     25  C   UNL     1     103.102 139.869 128.959  1.00  0.00     0.227 C 
ATOM     26  O   UNL     1     101.945 139.668 128.602  1.00  0.00    -0.274 OA
ATOM     27  C   UNL     1     103.498 141.000 129.847  1.00  0.00     0.115 C 
ENDBRANCH   2  25
TORSDOF 4
ENDMDL
MODEL 14
REMARK VINA RESULT:    -6.295      3.667      5.675
REMARK INTER + INTRA:          -8.444
REMARK INTER:                  -8.340
REMARK INTRA:                  -0.103
REMARK UNBOUND:                -0.677
REMARK SMILES CCN(CC)C(=O)[C@@H]1C=C2c3cccc4c3c(cn4C(C)=O)C[C@H]2N(C)C1
REMARK SMILES IDX 25 1 19 2 24 3 10 4 23 5 8 6 27 7 17 8 11 9 16 10 9 11 15 12
REMARK SMILES IDX 18 13 26 14 12 15 14 16 13 17 6 18 7 19 3 20 2 21 1 22 4 23
REMARK SMILES IDX 5 24 20 25 22 26 21 27
REMARK H PARENT
ROOT
ATOM      1  N   UNL     1     109.715 134.173 124.020  1.00  0.00    -0.298 NA
ATOM      2  N   UNL     1     105.213 136.768 127.186  1.00  0.00    -0.287 N 
ATOM      3  C   UNL     1     108.715 134.587 125.035  1.00  0.00     0.091 C 
ATOM      4  C   UNL     1     107.963 133.379 125.660  1.00  0.00    -0.026 C 
ATOM      5  C   UNL     1     107.711 135.719 124.601  1.00  0.00     0.061 C 
ATOM      6  C   UNL     1     108.792 131.869 123.874  1.00  0.00     0.116 C 
ATOM      7  C   UNL     1     109.211 133.139 123.107  1.00  0.00     0.102 C 
ATOM      8  C   UNL     1     106.728 135.973 125.701  1.00  0.00    -0.019 A 
ATOM      9  C   UNL     1     107.048 133.700 126.775  1.00  0.00    -0.011 A 
ATOM     10  C   UNL     1     106.484 134.987 126.679  1.00  0.00     0.011 A 
ATOM     11  C   UNL     1     108.032 132.137 125.147  1.00  0.00    -0.007 C 
ATOM     12  C   UNL     1     105.558 135.469 127.604  1.00  0.00     0.056 A 
ATOM     13  C   UNL     1     105.941 137.046 126.022  1.00  0.00     0.099 A 
ATOM     14  C   UNL     1     110.326 135.282 123.302  1.00  0.00     0.106 C 
ATOM     15  C   UNL     1     106.666 132.884 127.837  1.00  0.00     0.009 A 
ATOM     16  C   UNL     1     105.180 134.639 128.677  1.00  0.00     0.027 A 
ATOM     17  C   UNL     1     105.748 133.355 128.774  1.00  0.00     0.003 A 
ENDROOT
BRANCH   6  18
ATOM     18  C   UNL     1     108.085 130.876 122.933  1.00  0.00     0.230 C 
ATOM     19  O   UNL     1     106.936 130.519 123.227  1.00  0.00    -0.274 OA
ATOM     20  N   UNL     1     108.715 130.356 121.801  1.00  0.00    -0.343 N 
BRANCH  20  21
ATOM     21  C   UNL     1     107.946 129.406 120.989  1.00  0.00     0.116 C 
ATOM     22  C   UNL     1     107.023 130.083 119.986  1.00  0.00     0.027 C 
ENDBRANCH  20  21
BRANCH  20  23
ATOM     23  C   UNL     1     110.052 130.710 121.308  1.00  0.00     0.116 C 
ATOM     24  C   UNL     1     110.626 129.693 120.333  1.00  0.00     0.027 C 
ENDBRANCH  20  23
ENDBRANCH   6  18
BRANCH   2  25
ATOM     25  C   UNL     1     104.322 137.711 127.748  1.00  0.00     0.227 C 
ATOM     26  O   UNL     1     103.234 137.328 128.169  1.00  0.00    -0.274 OA
ATOM     27  C   UNL     1     104.762 139.135 127.801  1.00  0.00     0.115 C 
ENDBRANCH   2  25
TORSDOF 4
ENDMDL
MODEL 15
REMARK VINA RESULT:    -6.154      2.820      4.804
REMARK INTER + INTRA:          -8.270
REMARK INTER:                  -7.722
REMARK INTRA:                  -0.549
REMARK UNBOUND:                -0.677
REMARK SMILES CCN(CC)C(=O)[C@@H]1C=C2c3cccc4c3c(cn4C(C)=O)C[C@H]2N(C)C1
REMARK SMILES IDX 25 1 19 2 24 3 10 4 23 5 8 6 27 7 17 8 11 9 16 10 9 11 15 12
REMARK SMILES IDX 18 13 26 14 12 15 14 16 13 17 6 18 7 19 3 20 2 21 1 22 4 23
REMARK SMILES IDX 5 24 20 25 22 26 21 27
REMARK H PARENT
ROOT
ATOM      1  N   UNL     1     106.994 135.320 128.472  1.00  0.00    -0.298 NA
ATOM      2  N   UNL     1     109.943 139.859 125.692  1.00  0.00    -0.287 N 
ATOM      3  C   UNL     1     107.517 136.623 127.992  1.00  0.00     0.091 C 
ATOM      4  C   UNL     1     106.386 137.619 127.617  1.00  0.00    -0.026 C 
ATOM      5  C   UNL     1     108.616 136.560 126.867  1.00  0.00     0.061 C 
ATOM      6  C   UNL     1     104.699 135.799 127.643  1.00  0.00     0.116 C 
ATOM      7  C   UNL     1     105.884 134.812 127.655  1.00  0.00     0.102 C 
ATOM      8  C   UNL     1     108.987 137.948 126.444  1.00  0.00    -0.019 A 
ATOM      9  C   UNL     1     106.824 138.984 127.260  1.00  0.00    -0.011 A 
ATOM     10  C   UNL     1     108.104 139.022 126.673  1.00  0.00     0.011 A 
ATOM     11  C   UNL     1     105.099 137.244 127.495  1.00  0.00    -0.007 C 
ATOM     12  C   UNL     1     108.685 140.206 126.220  1.00  0.00     0.056 A 
ATOM     13  C   UNL     1     110.098 138.475 125.841  1.00  0.00     0.099 A 
ATOM     14  C   UNL     1     108.021 134.309 128.683  1.00  0.00     0.106 C 
ATOM     15  C   UNL     1     106.120 140.178 127.396  1.00  0.00     0.009 A 
ATOM     16  C   UNL     1     107.966 141.409 126.364  1.00  0.00     0.027 A 
ATOM     17  C   UNL     1     106.691 141.371 126.955  1.00  0.00     0.003 A 
ENDROOT
BRANCH   6  18
ATOM     18  C   UNL     1     103.631 135.349 126.629  1.00  0.00     0.230 C 
ATOM     19  O   UNL     1     103.880 135.496 125.424  1.00  0.00    -0.274 OA
ATOM     20  N   UNL     1     102.402 134.828 127.035  1.00  0.00    -0.343 N 
BRANCH  20  21
ATOM     21  C   UNL     1     101.458 134.449 125.979  1.00  0.00     0.116 C 
ATOM     22  C   UNL     1     100.992 133.003 126.079  1.00  0.00     0.027 C 
ENDBRANCH  20  21
BRANCH  20  23
ATOM     23  C   UNL     1     101.980 134.564 128.417  1.00  0.00     0.116 C 
ATOM     24  C   UNL     1     101.163 135.692 129.026  1.00  0.00     0.027 C 
ENDBRANCH  20  23
ENDBRANCH   6  18
BRANCH   2  25
ATOM     25  C   UNL     1     110.947 140.660 125.101  1.00  0.00     0.227 C 
ATOM     26  O   UNL     1     110.862 141.882 125.182  1.00  0.00    -0.274 OA
ATOM     27  C   UNL     1     112.069 139.964 124.407  1.00  0.00     0.115 C 
ENDBRANCH   2  25
TORSDOF 4
ENDMDL
MODEL 16
REMARK VINA RESULT:    -6.101      4.526      8.186
REMARK INTER + INTRA:          -8.205
REMARK INTER:                  -7.723
REMARK INTRA:                  -0.482
REMARK UNBOUND:                -0.677
REMARK SMILES CCN(CC)C(=O)[C@@H]1C=C2c3cccc4c3c(cn4C(C)=O)C[C@H]2N(C)C1
REMARK SMILES IDX 25 1 19 2 24 3 10 4 23 5 8 6 27 7 17 8 11 9 16 10 9 11 15 12
REMARK SMILES IDX 18 13 26 14 12 15 14 16 13 17 6 18 7 19 3 20 2 21 1 22 4 23
REMARK SMILES IDX 5 24 20 25 22 26 21 27
REMARK H PARENT
ROOT
ATOM      1  N   UNL     1     109.723 130.443 121.153  1.00  0.00    -0.298 NA
ATOM      2  N   UNL     1     107.686 131.902 126.698  1.00  0.00    -0.287 N 
ATOM      3  C   UNL     1     109.133 131.089 122.351  1.00  0.00     0.091 C 
ATOM      4  C   UNL     1     109.640 132.543 122.557  1.00  0.00    -0.026 C 
ATOM      5  C   UNL     1     109.206 130.266 123.692  1.00  0.00     0.061 C 
ATOM      6  C   UNL     1     111.474 132.192 120.923  1.00  0.00     0.116 C 
ATOM      7  C   UNL     1     111.165 130.685 121.023  1.00  0.00     0.102 C 
ATOM      8  C   UNL     1     108.636 131.077 124.814  1.00  0.00    -0.019 A 
ATOM      9  C   UNL     1     108.996 133.299 123.651  1.00  0.00    -0.011 A 
ATOM     10  C   UNL     1     108.564 132.481 124.713  1.00  0.00     0.011 A 
ATOM     11  C   UNL     1     110.684 133.050 121.877  1.00  0.00    -0.007 C 
ATOM     12  C   UNL     1     107.973 133.000 125.865  1.00  0.00     0.056 A 
ATOM     13  C   UNL     1     108.104 130.743 126.031  1.00  0.00     0.099 A 
ATOM     14  C   UNL     1     109.394 129.031 121.016  1.00  0.00     0.106 C 
ATOM     15  C   UNL     1     108.820 134.676 123.758  1.00  0.00     0.009 A 
ATOM     16  C   UNL     1     107.796 134.394 125.964  1.00  0.00     0.027 A 
ATOM     17  C   UNL     1     108.223 135.209 124.900  1.00  0.00     0.003 A 
ENDROOT
BRANCH   6  18
ATOM     18  C   UNL     1     112.994 132.439 120.988  1.00  0.00     0.230 C 
ATOM     19  O   UNL     1     113.554 132.301 122.084  1.00  0.00    -0.274 OA
ATOM     20  N   UNL     1     113.724 132.841 119.869  1.00  0.00    -0.343 N 
BRANCH  20  21
ATOM     21  C   UNL     1     115.162 133.061 120.057  1.00  0.00     0.116 C 
ATOM     22  C   UNL     1     115.533 134.530 120.194  1.00  0.00     0.027 C 
ENDBRANCH  20  21
BRANCH  20  23
ATOM     23  C   UNL     1     113.207 133.011 118.505  1.00  0.00     0.116 C 
ATOM     24  C   UNL     1     113.636 131.905 117.554  1.00  0.00     0.027 C 
ENDBRANCH  20  23
ENDBRANCH   6  18
BRANCH   2  25
ATOM     25  C   UNL     1     107.091 131.849 127.979  1.00  0.00     0.227 C 
ATOM     26  O   UNL     1     107.435 130.967 128.762  1.00  0.00    -0.274 OA
ATOM     27  C   UNL     1     106.069 132.882 128.313  1.00  0.00     0.115 C 
ENDBRANCH   2  25
TORSDOF 4
ENDMDL
MODEL 17
REMARK VINA RESULT:    -6.034      3.990      6.595
REMARK INTER + INTRA:          -8.122
REMARK INTER:                  -8.459
REMARK INTRA:                   0.337
REMARK UNBOUND:                -0.677
REMARK SMILES CCN(CC)C(=O)[C@@H]1C=C2c3cccc4c3c(cn4C(C)=O)C[C@H]2N(C)C1
REMARK SMILES IDX 25 1 19 2 24 3 10 4 23 5 8 6 27 7 17 8 11 9 16 10 9 11 15 12
REMARK SMILES IDX 18 13 26 14 12 15 14 16 13 17 6 18 7 19 3 20 2 21 1 22 4 23
REMARK SMILES IDX 5 24 20 25 22 26 21 27
REMARK H PARENT
ROOT
ATOM      1  N   UNL     1     108.858 138.896 128.293  1.00  0.00    -0.298 NA
ATOM      2  N   UNL     1     103.132 140.472 129.616  1.00  0.00    -0.287 N 
ATOM      3  C   UNL     1     107.473 139.003 128.814  1.00  0.00     0.091 C 
ATOM      4  C   UNL     1     106.693 137.664 128.714  1.00  0.00    -0.026 C 
ATOM      5  C   UNL     1     106.615 140.204 128.266  1.00  0.00     0.061 C 
ATOM      6  C   UNL     1     108.403 136.717 127.186  1.00  0.00     0.116 C 
ATOM      7  C   UNL     1     108.939 138.154 127.028  1.00  0.00     0.102 C 
ATOM      8  C   UNL     1     105.229 140.133 128.829  1.00  0.00    -0.019 A 
ATOM      9  C   UNL     1     105.353 137.654 129.337  1.00  0.00    -0.011 A 
ATOM     10  C   UNL     1     104.721 138.913 129.317  1.00  0.00     0.011 A 
ATOM     11  C   UNL     1     107.140 136.615 128.001  1.00  0.00    -0.007 C 
ATOM     12  C   UNL     1     103.431 139.111 129.811  1.00  0.00     0.056 A 
ATOM     13  C   UNL     1     104.247 141.069 129.013  1.00  0.00     0.099 A 
ATOM     14  C   UNL     1     109.567 140.167 128.224  1.00  0.00     0.106 C 
ATOM     15  C   UNL     1     104.662 136.572 129.876  1.00  0.00     0.009 A 
ATOM     16  C   UNL     1     102.741 138.011 130.357  1.00  0.00     0.027 A 
ATOM     17  C   UNL     1     103.376 136.756 130.382  1.00  0.00     0.003 A 
ENDROOT
BRANCH   6  18
ATOM     18  C   UNL     1     108.309 136.021 125.815  1.00  0.00     0.230 C 
ATOM     19  O   UNL     1     109.325 136.000 125.108  1.00  0.00    -0.274 OA
ATOM     20  N   UNL     1     107.118 135.461 125.353  1.00  0.00    -0.343 N 
BRANCH  20  21
ATOM     21  C   UNL     1     107.146 134.838 124.025  1.00  0.00     0.116 C 
ATOM     22  C   UNL     1     107.667 133.408 124.042  1.00  0.00     0.027 C 
ENDBRANCH  20  21
BRANCH  20  23
ATOM     23  C   UNL     1     105.850 135.378 126.088  1.00  0.00     0.116 C 
ATOM     24  C   UNL     1     104.768 136.292 125.534  1.00  0.00     0.027 C 
ENDBRANCH  20  23
ENDBRANCH   6  18
BRANCH   2  25
ATOM     25  C   UNL     1     101.969 141.214 129.927  1.00  0.00     0.227 C 
ATOM     26  O   UNL     1     101.992 141.992 130.876  1.00  0.00    -0.274 OA
ATOM     27  C   UNL     1     100.766 141.009 129.068  1.00  0.00     0.115 C 
ENDBRANCH   2  25
TORSDOF 4
ENDMDL
MODEL 18
REMARK VINA RESULT:    -5.817      3.297      5.753
REMARK INTER + INTRA:          -7.855
REMARK INTER:                  -8.064
REMARK INTRA:                   0.209
REMARK UNBOUND:                -0.677
REMARK SMILES CCN(CC)C(=O)[C@@H]1C=C2c3cccc4c3c(cn4C(C)=O)C[C@H]2N(C)C1
REMARK SMILES IDX 25 1 19 2 24 3 10 4 23 5 8 6 27 7 17 8 11 9 16 10 9 11 15 12
REMARK SMILES IDX 18 13 26 14 12 15 14 16 13 17 6 18 7 19 3 20 2 21 1 22 4 23
REMARK SMILES IDX 5 24 20 25 22 26 21 27
REMARK H PARENT
ROOT
ATOM      1  N   UNL     1     108.013 130.543 125.403  1.00  0.00    -0.298 NA
ATOM      2  N   UNL     1     106.985 136.064 127.746  1.00  0.00    -0.287 N 
ATOM      3  C   UNL     1     107.531 131.909 125.725  1.00  0.00     0.091 C 
ATOM      4  C   UNL     1     107.474 132.832 124.477  1.00  0.00    -0.026 C 
ATOM      5  C   UNL     1     108.237 132.630 126.933  1.00  0.00     0.061 C 
ATOM      6  C   UNL     1     108.845 131.234 123.164  1.00  0.00     0.116 C 
ATOM      7  C   UNL     1     109.173 130.543 124.503  1.00  0.00     0.102 C 
ATOM      8  C   UNL     1     107.691 134.015 127.085  1.00  0.00    -0.019 A 
ATOM      9  C   UNL     1     106.875 134.166 124.691  1.00  0.00    -0.011 A 
ATOM     10  C   UNL     1     107.062 134.656 125.998  1.00  0.00     0.011 A 
ATOM     11  C   UNL     1     108.044 132.502 123.303  1.00  0.00    -0.007 C 
ATOM     12  C   UNL     1     106.617 135.916 126.396  1.00  0.00     0.056 A 
ATOM     13  C   UNL     1     107.640 134.889 128.138  1.00  0.00     0.099 A 
ATOM     14  C   UNL     1     108.229 129.699 126.570  1.00  0.00     0.106 C 
ATOM     15  C   UNL     1     106.215 134.971 123.767  1.00  0.00     0.009 A 
ATOM     16  C   UNL     1     105.948 136.723 125.456  1.00  0.00     0.027 A 
ATOM     17  C   UNL     1     105.757 136.230 124.152  1.00  0.00     0.003 A 
ENDROOT
BRANCH   6  18
ATOM     18  C   UNL     1     110.120 131.402 122.315  1.00  0.00     0.230 C 
ATOM     19  O   UNL     1     110.627 130.382 121.828  1.00  0.00    -0.274 OA
ATOM     20  N   UNL     1     110.718 132.647 122.122  1.00  0.00    -0.343 N 
BRANCH  20  21
ATOM     21  C   UNL     1     111.938 132.680 121.307  1.00  0.00     0.116 C 
ATOM     22  C   UNL     1     111.679 133.050 119.854  1.00  0.00     0.027 C 
ENDBRANCH  20  21
BRANCH  20  23
ATOM     23  C   UNL     1     110.217 133.940 122.605  1.00  0.00     0.116 C 
ATOM     24  C   UNL     1     111.318 134.949 122.890  1.00  0.00     0.027 C 
ENDBRANCH  20  23
ENDBRANCH   6  18
BRANCH   2  25
ATOM     25  C   UNL     1     106.787 137.139 128.643  1.00  0.00     0.227 C 
ATOM     26  O   UNL     1     107.739 137.855 128.937  1.00  0.00    -0.274 OA
ATOM     27  C   UNL     1     105.412 137.345 129.185  1.00  0.00     0.115 C 
ENDBRANCH   2  25
TORSDOF 4
ENDMDL
