MODEL 1
REMARK VINA RESULT:    -8.621      0.000      0.000
REMARK INTER + INTRA:         -11.177
REMARK INTER:                 -10.637
REMARK INTRA:                  -0.540
REMARK UNBOUND:                -0.540
REMARK SMILES CCN(CC)C(=O)[C@@H]1C=C2c3cccc4c3c(cn4C(C)=O)C[C@H]2N(C)C1
REMARK SMILES IDX 25 1 19 2 24 3 10 4 23 5 8 6 27 7 17 8 11 9 16 10 9 11 15 12
REMARK SMILES IDX 18 13 26 14 12 15 14 16 13 17 6 18 7 19 3 20 2 21 1 22 4 23
REMARK SMILES IDX 5 24 20 25 22 26 21 27
REMARK H PARENT
ROOT
ATOM      1  N   UNL     1     105.595 116.244 110.521  1.00  0.00    -0.298 NA
ATOM      2  N   UNL     1     102.244 121.098 112.015  1.00  0.00    -0.287 N 
ATOM      3  C   UNL     1     104.609 117.203 111.078  1.00  0.00     0.091 C 
ATOM      4  C   UNL     1     103.148 116.686 110.972  1.00  0.00    -0.026 C 
ATOM      5  C   UNL     1     104.724 118.690 110.574  1.00  0.00     0.061 C 
ATOM      6  C   UNL     1     103.834 114.907 109.384  1.00  0.00     0.116 C 
ATOM      7  C   UNL     1     105.169 115.664 109.240  1.00  0.00     0.102 C 
ATOM      8  C   UNL     1     103.623 119.512 111.170  1.00  0.00    -0.019 A 
ATOM      9  C   UNL     1     102.121 117.523 111.627  1.00  0.00    -0.011 A 
ATOM     10  C   UNL     1     102.450 118.892 111.646  1.00  0.00     0.011 A 
ATOM     11  C   UNL     1     102.808 115.618 110.227  1.00  0.00    -0.007 C 
ATOM     12  C   UNL     1     101.596 119.860 112.176  1.00  0.00     0.056 A 
ATOM     13  C   UNL     1     103.477 120.854 111.396  1.00  0.00     0.099 A 
ATOM     14  C   UNL     1     106.955 116.759 110.459  1.00  0.00     0.106 C 
ATOM     15  C   UNL     1     100.899 117.125 112.162  1.00  0.00     0.009 A 
ATOM     16  C   UNL     1     100.363 119.448 112.718  1.00  0.00     0.027 A 
ATOM     17  C   UNL     1     100.039 118.079 112.703  1.00  0.00     0.003 A 
ENDROOT
BRANCH   6  18
ATOM     18  C   UNL     1     103.304 114.477 108.002  1.00  0.00     0.230 C 
ATOM     19  O   UNL     1     103.584 115.190 107.029  1.00  0.00    -0.274 OA
ATOM     20  N   UNL     1     102.502 113.347 107.839  1.00  0.00    -0.343 N 
BRANCH  20  21
ATOM     21  C   UNL     1     102.044 113.047 106.478  1.00  0.00     0.116 C 
ATOM     22  C   UNL     1     100.625 113.524 106.202  1.00  0.00     0.027 C 
ENDBRANCH  20  21
BRANCH  20  23
ATOM     23  C   UNL     1     102.117 112.392 108.886  1.00  0.00     0.116 C 
ATOM     24  C   UNL     1     100.814 112.751 109.584  1.00  0.00     0.027 C 
ENDBRANCH  20  23
ENDBRANCH   6  18
BRANCH   2  25
ATOM     25  C   UNL     1     101.836 122.405 112.368  1.00  0.00     0.227 C 
ATOM     26  O   UNL     1     102.616 123.131 112.978  1.00  0.00    -0.274 OA
ATOM     27  C   UNL     1     100.463 122.834 111.971  1.00  0.00     0.115 C 
ENDBRANCH   2  25
TORSDOF 4
ENDMDL
MODEL 2
REMARK VINA RESULT:    -8.340      3.168      7.268
REMARK INTER + INTRA:         -10.830
REMARK INTER:                 -10.129
REMARK INTRA:                  -0.701
REMARK UNBOUND:                -0.540
REMARK SMILES CCN(CC)C(=O)[C@@H]1C=C2c3cccc4c3c(cn4C(C)=O)C[C@H]2N(C)C1
REMARK SMILES IDX 25 1 19 2 24 3 10 4 23 5 8 6 27 7 17 8 11 9 16 10 9 11 15 12
REMARK SMILES IDX 18 13 26 14 12 15 14 16 13 17 6 18 7 19 3 20 2 21 1 22 4 23
REMARK SMILES IDX 5 24 20 25 22 26 21 27
REMARK H PARENT
ROOT
ATOM      1  N   UNL     1      99.541 120.337 112.491  1.00  0.00    -0.298 NA
ATOM      2  N   UNL     1     104.824 118.376 110.197  1.00  0.00    -0.287 N 
ATOM      3  C   UNL     1     100.642 119.593 111.830  1.00  0.00     0.091 C 
ATOM      4  C   UNL     1     100.696 118.102 112.260  1.00  0.00    -0.026 C 
ATOM      5  C   UNL     1     102.068 120.257 111.895  1.00  0.00     0.061 C 
ATOM      6  C   UNL     1      99.166 118.538 114.164  1.00  0.00     0.116 C 
ATOM      7  C   UNL     1      99.427 120.038 113.924  1.00  0.00     0.102 C 
ATOM      8  C   UNL     1     103.075 119.356 111.250  1.00  0.00    -0.019 A 
ATOM      9  C   UNL     1     101.679 117.262 111.544  1.00  0.00    -0.011 A 
ATOM     10  C   UNL     1     102.813 117.978 111.115  1.00  0.00     0.011 A 
ATOM     11  C   UNL     1      99.994 117.621 113.302  1.00  0.00    -0.007 C 
ATOM     12  C   UNL     1     103.882 117.365 110.460  1.00  0.00     0.056 A 
ATOM     13  C   UNL     1     104.305 119.579 110.692  1.00  0.00     0.099 A 
ATOM     14  C   UNL     1      99.555 121.771 112.234  1.00  0.00     0.106 C 
ATOM     15  C   UNL     1     101.625 115.893 111.299  1.00  0.00     0.009 A 
ATOM     16  C   UNL     1     103.817 115.979 110.215  1.00  0.00     0.027 A 
ATOM     17  C   UNL     1     102.681 115.267 110.639  1.00  0.00     0.003 A 
ENDROOT
BRANCH   6  18
ATOM     18  C   UNL     1      99.247 118.209 115.667  1.00  0.00     0.230 C 
ATOM     19  O   UNL     1     100.334 118.376 116.237  1.00  0.00    -0.274 OA
ATOM     20  N   UNL     1      98.154 117.702 116.370  1.00  0.00    -0.343 N 
BRANCH  20  21
ATOM     21  C   UNL     1      98.355 117.411 117.794  1.00  0.00     0.116 C 
ATOM     22  C   UNL     1      97.580 118.344 118.714  1.00  0.00     0.027 C 
ENDBRANCH  20  21
BRANCH  20  23
ATOM     23  C   UNL     1      96.801 117.484 115.842  1.00  0.00     0.116 C 
ATOM     24  C   UNL     1      96.263 116.088 116.111  1.00  0.00     0.027 C 
ENDBRANCH  20  23
ENDBRANCH   6  18
BRANCH   2  25
ATOM     25  C   UNL     1     106.086 118.317 109.561  1.00  0.00     0.227 C 
ATOM     26  O   UNL     1     106.148 117.966 108.386  1.00  0.00    -0.274 OA
ATOM     27  C   UNL     1     107.285 118.694 110.365  1.00  0.00     0.115 C 
ENDBRANCH   2  25
TORSDOF 4
ENDMDL
MODEL 3
REMARK VINA RESULT:    -8.315      3.101      7.482
REMARK INTER + INTRA:         -10.798
REMARK INTER:                 -10.297
REMARK INTRA:                  -0.501
REMARK UNBOUND:                -0.540
REMARK SMILES CCN(CC)C(=O)[C@@H]1C=C2c3cccc4c3c(cn4C(C)=O)C[C@H]2N(C)C1
REMARK SMILES IDX 25 1 19 2 24 3 10 4 23 5 8 6 27 7 17 8 11 9 16 10 9 11 15 12
REMARK SMILES IDX 18 13 26 14 12 15 14 16 13 17 6 18 7 19 3 20 2 21 1 22 4 23
REMARK SMILES IDX 5 24 20 25 22 26 21 27
REMARK H PARENT
ROOT
ATOM      1  N   UNL     1      99.930 120.642 112.179  1.00  0.00    -0.298 NA
ATOM      2  N   UNL     1     105.065 117.747 110.670  1.00  0.00    -0.287 N 
ATOM      3  C   UNL     1     100.968 119.701 111.689  1.00  0.00     0.091 C 
ATOM      4  C   UNL     1     100.712 118.239 112.148  1.00  0.00    -0.026 C 
ATOM      5  C   UNL     1     102.464 120.123 111.939  1.00  0.00     0.061 C 
ATOM      6  C   UNL     1      99.038 118.997 113.815  1.00  0.00     0.116 C 
ATOM      7  C   UNL     1      99.577 120.423 113.587  1.00  0.00     0.102 C 
ATOM      8  C   UNL     1     103.381 119.043 111.454  1.00  0.00    -0.019 A 
ATOM      9  C   UNL     1     101.626 117.221 111.589  1.00  0.00    -0.011 A 
ATOM     10  C   UNL     1     102.912 117.722 111.308  1.00  0.00     0.011 A 
ATOM     11  C   UNL     1      99.806 117.922 113.091  1.00  0.00    -0.007 C 
ATOM     12  C   UNL     1     103.939 116.916 110.819  1.00  0.00     0.056 A 
ATOM     13  C   UNL     1     104.695 119.038 111.068  1.00  0.00     0.099 A 
ATOM     14  C   UNL     1     100.220 122.042 111.902  1.00  0.00     0.106 C 
ATOM     15  C   UNL     1     101.375 115.871 111.363  1.00  0.00     0.009 A 
ATOM     16  C   UNL     1     103.675 115.551 110.590  1.00  0.00     0.027 A 
ATOM     17  C   UNL     1     102.389 115.054 110.866  1.00  0.00     0.003 A 
ENDROOT
BRANCH   6  18
ATOM     18  C   UNL     1      98.861 118.719 115.320  1.00  0.00     0.230 C 
ATOM     19  O   UNL     1      99.842 118.299 115.949  1.00  0.00    -0.274 OA
ATOM     20  N   UNL     1      97.635 118.893 115.963  1.00  0.00    -0.343 N 
BRANCH  20  21
ATOM     21  C   UNL     1      97.584 118.582 117.396  1.00  0.00     0.116 C 
ATOM     22  C   UNL     1      97.311 119.800 118.266  1.00  0.00     0.027 C 
ENDBRANCH  20  21
BRANCH  20  23
ATOM     23  C   UNL     1      96.401 119.414 115.361  1.00  0.00     0.116 C 
ATOM     24  C   UNL     1      95.227 118.453 115.458  1.00  0.00     0.027 C 
ENDBRANCH  20  23
ENDBRANCH   6  18
BRANCH   2  25
ATOM     25  C   UNL     1     106.372 117.455 110.216  1.00  0.00     0.227 C 
ATOM     26  O   UNL     1     106.695 116.285 110.035  1.00  0.00    -0.274 OA
ATOM     27  C   UNL     1     107.294 118.603 109.976  1.00  0.00     0.115 C 
ENDBRANCH   2  25
TORSDOF 4
ENDMDL
MODEL 4
REMARK VINA RESULT:    -7.753      3.661      7.010
REMARK INTER + INTRA:         -10.106
REMARK INTER:                  -9.429
REMARK INTRA:                  -0.676
REMARK UNBOUND:                -0.540
REMARK SMILES CCN(CC)C(=O)[C@@H]1C=C2c3cccc4c3c(cn4C(C)=O)C[C@H]2N(C)C1
REMARK SMILES IDX 25 1 19 2 24 3 10 4 23 5 8 6 27 7 17 8 11 9 16 10 9 11 15 12
REMARK SMILES IDX 18 13 26 14 12 15 14 16 13 17 6 18 7 19 3 20 2 21 1 22 4 23
REMARK SMILES IDX 5 24 20 25 22 26 21 27
REMARK H PARENT
ROOT
ATOM      1  N   UNL     1      98.636 119.701 112.971  1.00  0.00    -0.298 NA
ATOM      2  N   UNL     1     104.300 119.096 110.832  1.00  0.00    -0.287 N 
ATOM      3  C   UNL     1      99.888 119.278 112.295  1.00  0.00     0.091 C 
ATOM      4  C   UNL     1     100.198 117.770 112.503  1.00  0.00    -0.026 C 
ATOM      5  C   UNL     1     101.160 120.164 112.570  1.00  0.00     0.061 C 
ATOM      6  C   UNL     1      98.521 117.618 114.325  1.00  0.00     0.116 C 
ATOM      7  C   UNL     1      98.508 119.160 114.331  1.00  0.00     0.102 C 
ATOM      8  C   UNL     1     102.348 119.570 111.878  1.00  0.00    -0.019 A 
ATOM      9  C   UNL     1     101.354 117.243 111.748  1.00  0.00    -0.011 A 
ATOM     10  C   UNL     1     102.356 118.207 111.520  1.00  0.00     0.011 A 
ATOM     11  C   UNL     1      99.547 117.012 113.403  1.00  0.00    -0.007 C 
ATOM     12  C   UNL     1     103.551 117.905 110.868  1.00  0.00     0.056 A 
ATOM     13  C   UNL     1     103.541 120.093 111.458  1.00  0.00     0.099 A 
ATOM     14  C   UNL     1      98.395 121.136 112.932  1.00  0.00     0.106 C 
ATOM     15  C   UNL     1     101.569 115.943 111.300  1.00  0.00     0.009 A 
ATOM     16  C   UNL     1     103.758 116.588 110.415  1.00  0.00     0.027 A 
ATOM     17  C   UNL     1     102.755 115.627 110.639  1.00  0.00     0.003 A 
ENDROOT
BRANCH   6  18
ATOM     18  C   UNL     1      98.587 117.072 115.764  1.00  0.00     0.230 C 
ATOM     19  O   UNL     1      99.501 117.479 116.494  1.00  0.00    -0.274 OA
ATOM     20  N   UNL     1      97.680 116.122 116.234  1.00  0.00    -0.343 N 
BRANCH  20  21
ATOM     21  C   UNL     1      97.852 115.665 117.617  1.00  0.00     0.116 C 
ATOM     22  C   UNL     1      97.979 114.153 117.739  1.00  0.00     0.027 C 
ENDBRANCH  20  21
BRANCH  20  23
ATOM     23  C   UNL     1      96.531 115.576 115.501  1.00  0.00     0.116 C 
ATOM     24  C   UNL     1      95.199 116.169 115.933  1.00  0.00     0.027 C 
ENDBRANCH  20  23
ENDBRANCH   6  18
BRANCH   2  25
ATOM     25  C   UNL     1     105.581 119.363 110.295  1.00  0.00     0.227 C 
ATOM     26  O   UNL     1     106.448 119.837 111.025  1.00  0.00    -0.274 OA
ATOM     27  C   UNL     1     105.809 119.046 108.856  1.00  0.00     0.115 C 
ENDBRANCH   2  25
TORSDOF 4
ENDMDL
MODEL 5
REMARK VINA RESULT:    -7.747      2.405      3.836
REMARK INTER + INTRA:         -10.099
REMARK INTER:                  -9.490
REMARK INTRA:                  -0.609
REMARK UNBOUND:                -0.540
REMARK SMILES CCN(CC)C(=O)[C@@H]1C=C2c3cccc4c3c(cn4C(C)=O)C[C@H]2N(C)C1
REMARK SMILES IDX 25 1 19 2 24 3 10 4 23 5 8 6 27 7 17 8 11 9 16 10 9 11 15 12
REMARK SMILES IDX 18 13 26 14 12 15 14 16 13 17 6 18 7 19 3 20 2 21 1 22 4 23
REMARK SMILES IDX 5 24 20 25 22 26 21 27
REMARK H PARENT
ROOT
ATOM      1  N   UNL     1     104.524 120.384 111.882  1.00  0.00    -0.298 NA
ATOM      2  N   UNL     1      98.635 121.293 113.111  1.00  0.00    -0.287 N 
ATOM      3  C   UNL     1     103.119 120.312 112.353  1.00  0.00     0.091 C 
ATOM      4  C   UNL     1     102.472 118.924 112.094  1.00  0.00    -0.026 C 
ATOM      5  C   UNL     1     102.169 121.479 111.888  1.00  0.00     0.061 C 
ATOM      6  C   UNL     1     104.313 118.293 110.554  1.00  0.00     0.116 C 
ATOM      7  C   UNL     1     104.716 119.781 110.557  1.00  0.00     0.102 C 
ATOM      8  C   UNL     1     100.779 121.227 112.384  1.00  0.00    -0.019 A 
ATOM      9  C   UNL     1     101.120 118.731 112.656  1.00  0.00    -0.011 A 
ATOM     10  C   UNL     1     100.372 119.922 112.730  1.00  0.00     0.011 A 
ATOM     11  C   UNL     1     103.039 117.996 111.302  1.00  0.00    -0.007 C 
ATOM     12  C   UNL     1      99.055 119.952 113.187  1.00  0.00     0.056 A 
ATOM     13  C   UNL     1      99.707 122.046 112.616  1.00  0.00     0.099 A 
ATOM     14  C   UNL     1     105.112 121.714 111.965  1.00  0.00     0.106 C 
ATOM     15  C   UNL     1     100.517 117.542 113.060  1.00  0.00     0.009 A 
ATOM     16  C   UNL     1      98.454 118.746 113.596  1.00  0.00     0.027 A 
ATOM     17  C   UNL     1      99.204 117.557 113.527  1.00  0.00     0.003 A 
ENDROOT
BRANCH   6  18
ATOM     18  C   UNL     1     104.330 117.731 109.120  1.00  0.00     0.230 C 
ATOM     19  O   UNL     1     104.052 118.504 108.193  1.00  0.00    -0.274 OA
ATOM     20  N   UNL     1     104.609 116.389 108.858  1.00  0.00    -0.343 N 
BRANCH  20  21
ATOM     21  C   UNL     1     104.580 115.966 107.453  1.00  0.00     0.116 C 
ATOM     22  C   UNL     1     104.604 114.454 107.281  1.00  0.00     0.027 C 
ENDBRANCH  20  21
BRANCH  20  23
ATOM     23  C   UNL     1     104.987 115.368 109.843  1.00  0.00     0.116 C 
ATOM     24  C   UNL     1     106.410 115.521 110.357  1.00  0.00     0.027 C 
ENDBRANCH  20  23
ENDBRANCH   6  18
BRANCH   2  25
ATOM     25  C   UNL     1      97.397 121.892 113.443  1.00  0.00     0.227 C 
ATOM     26  O   UNL     1      97.295 122.506 114.501  1.00  0.00    -0.274 OA
ATOM     27  C   UNL     1      96.274 121.744 112.473  1.00  0.00     0.115 C 
ENDBRANCH   2  25
TORSDOF 4
ENDMDL
MODEL 6
REMARK VINA RESULT:    -7.618      3.936      6.681
REMARK INTER + INTRA:          -9.939
REMARK INTER:                  -9.324
REMARK INTRA:                  -0.615
REMARK UNBOUND:                -0.540
REMARK SMILES CCN(CC)C(=O)[C@@H]1C=C2c3cccc4c3c(cn4C(C)=O)C[C@H]2N(C)C1
REMARK SMILES IDX 25 1 19 2 24 3 10 4 23 5 8 6 27 7 17 8 11 9 16 10 9 11 15 12
REMARK SMILES IDX 18 13 26 14 12 15 14 16 13 17 6 18 7 19 3 20 2 21 1 22 4 23
REMARK SMILES IDX 5 24 20 25 22 26 21 27
REMARK H PARENT
ROOT
ATOM      1  N   UNL     1     100.947 121.274 112.682  1.00  0.00    -0.298 NA
ATOM      2  N   UNL     1      95.484 119.448 114.643  1.00  0.00    -0.287 N 
ATOM      3  C   UNL     1      99.789 120.742 113.440  1.00  0.00     0.091 C 
ATOM      4  C   UNL     1     100.069 119.343 114.055  1.00  0.00    -0.026 C 
ATOM      5  C   UNL     1      98.400 120.769 112.699  1.00  0.00     0.061 C 
ATOM      6  C   UNL     1     102.090 119.066 112.643  1.00  0.00     0.116 C 
ATOM      7  C   UNL     1     101.580 120.266 111.820  1.00  0.00     0.102 C 
ATOM      8  C   UNL     1      97.353 120.138 113.564  1.00  0.00    -0.019 A 
ATOM      9  C   UNL     1      99.013 118.807 114.939  1.00  0.00    -0.011 A 
ATOM     10  C   UNL     1      97.721 119.245 114.590  1.00  0.00     0.011 A 
ATOM     11  C   UNL     1     101.139 118.601 113.714  1.00  0.00    -0.007 C 
ATOM     12  C   UNL     1      96.578 118.819 115.267  1.00  0.00     0.056 A 
ATOM     13  C   UNL     1      95.989 120.244 113.606  1.00  0.00     0.099 A 
ATOM     14  C   UNL     1     100.669 122.508 111.961  1.00  0.00     0.106 C 
ATOM     15  C   UNL     1      99.149 117.919 116.002  1.00  0.00     0.009 A 
ATOM     16  C   UNL     1      96.725 117.923 116.343  1.00  0.00     0.027 A 
ATOM     17  C   UNL     1      98.017 117.490 116.693  1.00  0.00     0.003 A 
ENDROOT
BRANCH   6  18
ATOM     18  C   UNL     1     102.568 117.936 111.712  1.00  0.00     0.230 C 
ATOM     19  O   UNL     1     101.790 116.997 111.497  1.00  0.00    -0.274 OA
ATOM     20  N   UNL     1     103.846 117.934 111.152  1.00  0.00    -0.343 N 
BRANCH  20  21
ATOM     21  C   UNL     1     104.194 116.796 110.293  1.00  0.00     0.116 C 
ATOM     22  C   UNL     1     105.646 116.360 110.433  1.00  0.00     0.027 C 
ENDBRANCH  20  21
BRANCH  20  23
ATOM     23  C   UNL     1     104.860 118.987 111.287  1.00  0.00     0.116 C 
ATOM     24  C   UNL     1     104.904 119.941 110.103  1.00  0.00     0.027 C 
ENDBRANCH  20  23
ENDBRANCH   6  18
BRANCH   2  25
ATOM     25  C   UNL     1      94.099 119.374 114.917  1.00  0.00     0.227 C 
ATOM     26  O   UNL     1      93.489 120.402 115.198  1.00  0.00    -0.274 OA
ATOM     27  C   UNL     1      93.449 118.034 114.843  1.00  0.00     0.115 C 
ENDBRANCH   2  25
TORSDOF 4
ENDMDL
MODEL 7
REMARK VINA RESULT:    -7.458      6.400     10.014
REMARK INTER + INTRA:          -9.741
REMARK INTER:                  -9.312
REMARK INTRA:                  -0.429
REMARK UNBOUND:                -0.540
REMARK SMILES CCN(CC)C(=O)[C@@H]1C=C2c3cccc4c3c(cn4C(C)=O)C[C@H]2N(C)C1
REMARK SMILES IDX 25 1 19 2 24 3 10 4 23 5 8 6 27 7 17 8 11 9 16 10 9 11 15 12
REMARK SMILES IDX 18 13 26 14 12 15 14 16 13 17 6 18 7 19 3 20 2 21 1 22 4 23
REMARK SMILES IDX 5 24 20 25 22 26 21 27
REMARK H PARENT
ROOT
ATOM      1  N   UNL     1      96.554 121.142 116.784  1.00  0.00    -0.298 NA
ATOM      2  N   UNL     1      94.564 115.426 116.164  1.00  0.00    -0.287 N 
ATOM      3  C   UNL     1      96.364 119.671 116.785  1.00  0.00     0.091 C 
ATOM      4  C   UNL     1      97.604 118.908 116.242  1.00  0.00    -0.026 C 
ATOM      5  C   UNL     1      95.036 119.140 116.125  1.00  0.00     0.061 C 
ATOM      6  C   UNL     1      98.558 121.004 115.318  1.00  0.00     0.116 C 
ATOM      7  C   UNL     1      97.172 121.640 115.548  1.00  0.00     0.102 C 
ATOM      8  C   UNL     1      95.027 117.643 116.142  1.00  0.00    -0.019 A 
ATOM      9  C   UNL     1      97.544 117.435 116.338  1.00  0.00    -0.011 A 
ATOM     10  C   UNL     1      96.234 116.925 116.255  1.00  0.00     0.011 A 
ATOM     11  C   UNL     1      98.616 119.527 115.607  1.00  0.00    -0.007 C 
ATOM     12  C   UNL     1      95.960 115.557 116.277  1.00  0.00     0.056 A 
ATOM     13  C   UNL     1      94.022 116.715 116.081  1.00  0.00     0.099 A 
ATOM     14  C   UNL     1      95.359 121.896 117.136  1.00  0.00     0.106 C 
ATOM     15  C   UNL     1      98.601 116.536 116.452  1.00  0.00     0.009 A 
ATOM     16  C   UNL     1      97.036 114.656 116.395  1.00  0.00     0.027 A 
ATOM     17  C   UNL     1      98.343 115.167 116.484  1.00  0.00     0.003 A 
ENDROOT
BRANCH   6  18
ATOM     18  C   UNL     1      99.102 121.381 113.927  1.00  0.00     0.230 C 
ATOM     19  O   UNL     1     100.132 122.067 113.877  1.00  0.00    -0.274 OA
ATOM     20  N   UNL     1      98.450 121.003 112.753  1.00  0.00    -0.343 N 
BRANCH  20  21
ATOM     21  C   UNL     1      99.054 121.433 111.488  1.00  0.00     0.116 C 
ATOM     22  C   UNL     1      99.086 120.336 110.433  1.00  0.00     0.027 C 
ENDBRANCH  20  21
BRANCH  20  23
ATOM     23  C   UNL     1      97.248 120.165 112.654  1.00  0.00     0.116 C 
ATOM     24  C   UNL     1      96.014 120.928 112.201  1.00  0.00     0.027 C 
ENDBRANCH  20  23
ENDBRANCH   6  18
BRANCH   2  25
ATOM     25  C   UNL     1      93.746 114.273 116.131  1.00  0.00     0.227 C 
ATOM     26  O   UNL     1      93.133 113.945 117.143  1.00  0.00    -0.274 OA
ATOM     27  C   UNL     1      93.670 113.514 114.849  1.00  0.00     0.115 C 
ENDBRANCH   2  25
TORSDOF 4
ENDMDL
MODEL 8
REMARK VINA RESULT:    -7.363      3.011      7.508
REMARK INTER + INTRA:          -9.624
REMARK INTER:                  -9.402
REMARK INTRA:                  -0.222
REMARK UNBOUND:                -0.540
REMARK SMILES CCN(CC)C(=O)[C@@H]1C=C2c3cccc4c3c(cn4C(C)=O)C[C@H]2N(C)C1
REMARK SMILES IDX 25 1 19 2 24 3 10 4 23 5 8 6 27 7 17 8 11 9 16 10 9 11 15 12
REMARK SMILES IDX 18 13 26 14 12 15 14 16 13 17 6 18 7 19 3 20 2 21 1 22 4 23
REMARK SMILES IDX 5 24 20 25 22 26 21 27
REMARK H PARENT
ROOT
ATOM      1  N   UNL     1      99.708 118.406 114.121  1.00  0.00    -0.298 NA
ATOM      2  N   UNL     1     104.465 117.400 110.461  1.00  0.00    -0.287 N 
ATOM      3  C   UNL     1     100.990 118.444 113.374  1.00  0.00     0.091 C 
ATOM      4  C   UNL     1     101.283 119.841 112.763  1.00  0.00    -0.026 C 
ATOM      5  C   UNL     1     101.212 117.301 112.313  1.00  0.00     0.061 C 
ATOM      6  C   UNL     1      98.944 120.567 113.159  1.00  0.00     0.116 C 
ATOM      7  C   UNL     1      98.613 119.083 113.414  1.00  0.00     0.102 C 
ATOM      8  C   UNL     1     102.510 117.518 111.600  1.00  0.00    -0.019 A 
ATOM      9  C   UNL     1     102.605 119.996 112.120  1.00  0.00    -0.011 A 
ATOM     10  C   UNL     1     103.097 118.799 111.566  1.00  0.00     0.011 A 
ATOM     11  C   UNL     1     100.358 120.816 112.701  1.00  0.00    -0.007 C 
ATOM     12  C   UNL     1     104.306 118.736 110.872  1.00  0.00     0.056 A 
ATOM     13  C   UNL     1     103.352 116.682 110.918  1.00  0.00     0.099 A 
ATOM     14  C   UNL     1      99.323 117.076 114.573  1.00  0.00     0.106 C 
ATOM     15  C   UNL     1     103.359 121.157 111.972  1.00  0.00     0.009 A 
ATOM     16  C   UNL     1     105.064 119.915 110.730  1.00  0.00     0.027 A 
ATOM     17  C   UNL     1     104.573 121.109 111.288  1.00  0.00     0.003 A 
ENDROOT
BRANCH   6  18
ATOM     18  C   UNL     1      97.880 121.210 112.248  1.00  0.00     0.230 C 
ATOM     19  O   UNL     1      98.194 121.450 111.074  1.00  0.00    -0.274 OA
ATOM     20  N   UNL     1      96.613 121.552 112.723  1.00  0.00    -0.343 N 
BRANCH  20  21
ATOM     21  C   UNL     1      95.690 122.172 111.766  1.00  0.00     0.116 C 
ATOM     22  C   UNL     1      95.289 121.244 110.629  1.00  0.00     0.027 C 
ENDBRANCH  20  21
BRANCH  20  23
ATOM     23  C   UNL     1      96.089 121.298 114.070  1.00  0.00     0.116 C 
ATOM     24  C   UNL     1      95.107 120.138 114.129  1.00  0.00     0.027 C 
ENDBRANCH  20  23
ENDBRANCH   6  18
BRANCH   2  25
ATOM     25  C   UNL     1     105.501 116.778 109.727  1.00  0.00     0.227 C 
ATOM     26  O   UNL     1     105.598 117.001 108.524  1.00  0.00    -0.274 OA
ATOM     27  C   UNL     1     106.431 115.877 110.468  1.00  0.00     0.115 C 
ENDBRANCH   2  25
TORSDOF 4
ENDMDL
MODEL 9
REMARK VINA RESULT:    -7.358      6.176      9.624
REMARK INTER + INTRA:          -9.618
REMARK INTER:                  -9.086
REMARK INTRA:                  -0.531
REMARK UNBOUND:                -0.540
REMARK SMILES CCN(CC)C(=O)[C@@H]1C=C2c3cccc4c3c(cn4C(C)=O)C[C@H]2N(C)C1
REMARK SMILES IDX 25 1 19 2 24 3 10 4 23 5 8 6 27 7 17 8 11 9 16 10 9 11 15 12
REMARK SMILES IDX 18 13 26 14 12 15 14 16 13 17 6 18 7 19 3 20 2 21 1 22 4 23
REMARK SMILES IDX 5 24 20 25 22 26 21 27
REMARK H PARENT
ROOT
ATOM      1  N   UNL     1      94.838 121.816 116.419  1.00  0.00    -0.298 NA
ATOM      2  N   UNL     1      99.720 121.347 112.818  1.00  0.00    -0.287 N 
ATOM      3  C   UNL     1      95.798 121.731 115.292  1.00  0.00     0.091 C 
ATOM      4  C   UNL     1      95.356 120.710 114.207  1.00  0.00    -0.026 C 
ATOM      5  C   UNL     1      97.311 121.530 115.679  1.00  0.00     0.061 C 
ATOM      6  C   UNL     1      93.666 119.732 115.737  1.00  0.00     0.116 C 
ATOM      7  C   UNL     1      94.369 120.500 116.874  1.00  0.00     0.102 C 
ATOM      8  C   UNL     1      98.137 121.394 114.438  1.00  0.00    -0.019 A 
ATOM      9  C   UNL     1      96.190 120.667 112.988  1.00  0.00    -0.011 A 
ATOM     10  C   UNL     1      97.539 120.998 113.225  1.00  0.00     0.011 A 
ATOM     11  C   UNL     1      94.361 119.827 114.404  1.00  0.00    -0.007 C 
ATOM     12  C   UNL     1      98.504 120.973 112.218  1.00  0.00     0.056 A 
ATOM     13  C   UNL     1      99.465 121.595 114.174  1.00  0.00     0.099 A 
ATOM     14  C   UNL     1      95.294 122.643 117.528  1.00  0.00     0.106 C 
ATOM     15  C   UNL     1      95.811 120.307 111.698  1.00  0.00     0.009 A 
ATOM     16  C   UNL     1      98.110 120.610 110.915  1.00  0.00     0.027 A 
ATOM     17  C   UNL     1      96.762 120.285 110.679  1.00  0.00     0.003 A 
ENDROOT
BRANCH   6  18
ATOM     18  C   UNL     1      93.360 118.286 116.170  1.00  0.00     0.230 C 
ATOM     19  O   UNL     1      92.182 117.994 116.420  1.00  0.00    -0.274 OA
ATOM     20  N   UNL     1      94.367 117.332 116.318  1.00  0.00    -0.343 N 
BRANCH  20  21
ATOM     21  C   UNL     1      93.956 115.991 116.751  1.00  0.00     0.116 C 
ATOM     22  C   UNL     1      93.965 114.967 115.625  1.00  0.00     0.027 C 
ENDBRANCH  20  21
BRANCH  20  23
ATOM     23  C   UNL     1      95.794 117.518 116.027  1.00  0.00     0.116 C 
ATOM     24  C   UNL     1      96.662 117.589 117.274  1.00  0.00     0.027 C 
ENDBRANCH  20  23
ENDBRANCH   6  18
BRANCH   2  25
ATOM     25  C   UNL     1     101.016 121.485 112.269  1.00  0.00     0.227 C 
ATOM     26  O   UNL     1     101.573 120.498 111.796  1.00  0.00    -0.274 OA
ATOM     27  C   UNL     1     101.637 122.840 112.291  1.00  0.00     0.115 C 
ENDBRANCH   2  25
TORSDOF 4
ENDMDL
MODEL 10
REMARK VINA RESULT:    -7.168      1.873      2.511
REMARK INTER + INTRA:          -9.384
REMARK INTER:                  -9.236
REMARK INTRA:                  -0.148
REMARK UNBOUND:                -0.540
REMARK SMILES CCN(CC)C(=O)[C@@H]1C=C2c3cccc4c3c(cn4C(C)=O)C[C@H]2N(C)C1
REMARK SMILES IDX 25 1 19 2 24 3 10 4 23 5 8 6 27 7 17 8 11 9 16 10 9 11 15 12
REMARK SMILES IDX 18 13 26 14 12 15 14 16 13 17 6 18 7 19 3 20 2 21 1 22 4 23
REMARK SMILES IDX 5 24 20 25 22 26 21 27
REMARK H PARENT
ROOT
ATOM      1  N   UNL     1     104.207 114.232 109.150  1.00  0.00    -0.298 NA
ATOM      2  N   UNL     1     103.768 119.911 111.290  1.00  0.00    -0.287 N 
ATOM      3  C   UNL     1     103.948 115.463 109.936  1.00  0.00     0.091 C 
ATOM      4  C   UNL     1     102.481 115.552 110.439  1.00  0.00    -0.026 C 
ATOM      5  C   UNL     1     104.407 116.818 109.278  1.00  0.00     0.061 C 
ATOM      6  C   UNL     1     101.784 113.735 108.900  1.00  0.00     0.116 C 
ATOM      7  C   UNL     1     103.139 113.929 108.189  1.00  0.00     0.102 C 
ATOM      8  C   UNL     1     104.014 117.965 110.156  1.00  0.00    -0.019 A 
ATOM      9  C   UNL     1     102.180 116.682 111.343  1.00  0.00    -0.011 A 
ATOM     10  C   UNL     1     102.976 117.818 111.098  1.00  0.00     0.011 A 
ATOM     11  C   UNL     1     101.509 114.738 109.990  1.00  0.00    -0.007 C 
ATOM     12  C   UNL     1     102.821 119.008 111.808  1.00  0.00     0.056 A 
ATOM     13  C   UNL     1     104.479 119.247 110.282  1.00  0.00     0.099 A 
ATOM     14  C   UNL     1     105.524 114.189 108.530  1.00  0.00     0.106 C 
ATOM     15  C   UNL     1     101.206 116.754 112.336  1.00  0.00     0.009 A 
ATOM     16  C   UNL     1     101.835 119.071 112.812  1.00  0.00     0.027 A 
ATOM     17  C   UNL     1     101.044 117.935 113.059  1.00  0.00     0.003 A 
ENDROOT
BRANCH   6  18
ATOM     18  C   UNL     1     100.645 113.617 107.870  1.00  0.00     0.230 C 
ATOM     19  O   UNL     1     100.897 113.911 106.694  1.00  0.00    -0.274 OA
ATOM     20  N   UNL     1      99.355 113.231 108.238  1.00  0.00    -0.343 N 
BRANCH  20  21
ATOM     21  C   UNL     1      98.349 113.170 107.172  1.00  0.00     0.116 C 
ATOM     22  C   UNL     1      97.206 112.213 107.479  1.00  0.00     0.027 C 
ENDBRANCH  20  21
BRANCH  20  23
ATOM     23  C   UNL     1      98.917 112.822 109.578  1.00  0.00     0.116 C 
ATOM     24  C   UNL     1      98.109 113.888 110.303  1.00  0.00     0.027 C 
ENDBRANCH  20  23
ENDBRANCH   6  18
BRANCH   2  25
ATOM     25  C   UNL     1     104.048 121.253 111.636  1.00  0.00     0.227 C 
ATOM     26  O   UNL     1     105.211 121.646 111.614  1.00  0.00    -0.274 OA
ATOM     27  C   UNL     1     102.898 122.127 112.008  1.00  0.00     0.115 C 
ENDBRANCH   2  25
TORSDOF 4
ENDMDL
MODEL 11
REMARK VINA RESULT:    -7.146      2.421      7.629
REMARK INTER + INTRA:          -9.357
REMARK INTER:                  -8.860
REMARK INTRA:                  -0.497
REMARK UNBOUND:                -0.540
REMARK SMILES CCN(CC)C(=O)[C@@H]1C=C2c3cccc4c3c(cn4C(C)=O)C[C@H]2N(C)C1
REMARK SMILES IDX 25 1 19 2 24 3 10 4 23 5 8 6 27 7 17 8 11 9 16 10 9 11 15 12
REMARK SMILES IDX 18 13 26 14 12 15 14 16 13 17 6 18 7 19 3 20 2 21 1 22 4 23
REMARK SMILES IDX 5 24 20 25 22 26 21 27
REMARK H PARENT
ROOT
ATOM      1  N   UNL     1     100.216 115.367 112.545  1.00  0.00    -0.298 NA
ATOM      2  N   UNL     1     103.676 113.894 107.762  1.00  0.00    -0.287 N 
ATOM      3  C   UNL     1     101.307 115.154 111.563  1.00  0.00     0.091 C 
ATOM      4  C   UNL     1     102.131 116.443 111.296  1.00  0.00    -0.026 C 
ATOM      5  C   UNL     1     100.901 114.448 110.215  1.00  0.00     0.061 C 
ATOM      6  C   UNL     1     100.401 117.842 112.396  1.00  0.00     0.116 C 
ATOM      7  C   UNL     1      99.473 116.613 112.316  1.00  0.00     0.102 C 
ATOM      8  C   UNL     1     102.090 114.370 109.308  1.00  0.00    -0.019 A 
ATOM      9  C   UNL     1     103.319 116.279 110.433  1.00  0.00    -0.011 A 
ATOM     10  C   UNL     1     103.177 115.250 109.482  1.00  0.00     0.011 A 
ATOM     11  C   UNL     1     101.730 117.659 111.710  1.00  0.00    -0.007 C 
ATOM     12  C   UNL     1     104.164 114.961 108.539  1.00  0.00     0.056 A 
ATOM     13  C   UNL     1     102.408 113.557 108.253  1.00  0.00     0.099 A 
ATOM     14  C   UNL     1      99.326 114.225 112.703  1.00  0.00     0.106 C 
ATOM     15  C   UNL     1     104.491 117.030 110.431  1.00  0.00     0.009 A 
ATOM     16  C   UNL     1     105.348 115.723 108.546  1.00  0.00     0.027 A 
ATOM     17  C   UNL     1     105.490 116.748 109.500  1.00  0.00     0.003 A 
ENDROOT
BRANCH   6  18
ATOM     18  C   UNL     1      99.653 119.115 111.958  1.00  0.00     0.230 C 
ATOM     19  O   UNL     1      99.900 119.573 110.834  1.00  0.00    -0.274 OA
ATOM     20  N   UNL     1      98.751 119.766 112.801  1.00  0.00    -0.343 N 
BRANCH  20  21
ATOM     21  C   UNL     1      98.110 120.979 112.280  1.00  0.00     0.116 C 
ATOM     22  C   UNL     1      96.688 120.745 111.790  1.00  0.00     0.027 C 
ENDBRANCH  20  21
BRANCH  20  23
ATOM     23  C   UNL     1      98.332 119.326 114.138  1.00  0.00     0.116 C 
ATOM     24  C   UNL     1      99.130 119.965 115.263  1.00  0.00     0.027 C 
ENDBRANCH  20  23
ENDBRANCH   6  18
BRANCH   2  25
ATOM     25  C   UNL     1     104.258 113.207 106.672  1.00  0.00     0.227 C 
ATOM     26  O   UNL     1     105.475 113.049 106.645  1.00  0.00    -0.274 OA
ATOM     27  C   UNL     1     103.345 112.702 105.605  1.00  0.00     0.115 C 
ENDBRANCH   2  25
TORSDOF 4
ENDMDL
MODEL 12
REMARK VINA RESULT:    -6.793      4.216      7.103
REMARK INTER + INTRA:          -8.921
REMARK INTER:                  -8.239
REMARK INTRA:                  -0.682
REMARK UNBOUND:                -0.540
REMARK SMILES CCN(CC)C(=O)[C@@H]1C=C2c3cccc4c3c(cn4C(C)=O)C[C@H]2N(C)C1
REMARK SMILES IDX 25 1 19 2 24 3 10 4 23 5 8 6 27 7 17 8 11 9 16 10 9 11 15 12
REMARK SMILES IDX 18 13 26 14 12 15 14 16 13 17 6 18 7 19 3 20 2 21 1 22 4 23
REMARK SMILES IDX 5 24 20 25 22 26 21 27
REMARK H PARENT
ROOT
ATOM      1  N   UNL     1     100.029 118.380 114.684  1.00  0.00    -0.298 NA
ATOM      2  N   UNL     1      95.538 122.482 114.873  1.00  0.00    -0.287 N 
ATOM      3  C   UNL     1      98.836 119.229 114.440  1.00  0.00     0.091 C 
ATOM      4  C   UNL     1      98.781 119.778 112.989  1.00  0.00    -0.026 C 
ATOM      5  C   UNL     1      98.569 120.371 115.491  1.00  0.00     0.061 C 
ATOM      6  C   UNL     1     101.148 119.144 112.599  1.00  0.00     0.116 C 
ATOM      7  C   UNL     1     101.262 118.950 114.124  1.00  0.00     0.102 C 
ATOM      8  C   UNL     1      97.379 121.177 115.070  1.00  0.00    -0.019 A 
ATOM      9  C   UNL     1      97.554 120.520 112.629  1.00  0.00    -0.011 A 
ATOM     10  C   UNL     1      96.966 121.184 113.723  1.00  0.00     0.011 A 
ATOM     11  C   UNL     1      99.825 119.704 112.144  1.00  0.00    -0.007 C 
ATOM     12  C   UNL     1      95.827 121.980 113.591  1.00  0.00     0.056 A 
ATOM     13  C   UNL     1      96.504 121.976 115.754  1.00  0.00     0.099 A 
ATOM     14  C   UNL     1     100.198 117.977 116.073  1.00  0.00     0.106 C 
ATOM     15  C   UNL     1      96.971 120.662 111.373  1.00  0.00     0.009 A 
ATOM     16  C   UNL     1      95.243 122.115 112.317  1.00  0.00     0.027 A 
ATOM     17  C   UNL     1      95.829 121.447 111.227  1.00  0.00     0.003 A 
ENDROOT
BRANCH   6  18
ATOM     18  C   UNL     1     102.363 119.921 112.060  1.00  0.00     0.230 C 
ATOM     19  O   UNL     1     102.427 121.134 112.302  1.00  0.00    -0.274 OA
ATOM     20  N   UNL     1     103.350 119.304 111.289  1.00  0.00    -0.343 N 
BRANCH  20  21
ATOM     21  C   UNL     1     104.452 120.150 110.818  1.00  0.00     0.116 C 
ATOM     22  C   UNL     1     105.794 119.432 110.796  1.00  0.00     0.027 C 
ENDBRANCH  20  21
BRANCH  20  23
ATOM     23  C   UNL     1     103.428 117.878 110.951  1.00  0.00     0.116 C 
ATOM     24  C   UNL     1     102.766 117.533 109.626  1.00  0.00     0.027 C 
ENDBRANCH  20  23
ENDBRANCH   6  18
BRANCH   2  25
ATOM     25  C   UNL     1      94.503 123.337 115.317  1.00  0.00     0.227 C 
ATOM     26  O   UNL     1      93.353 123.129 114.939  1.00  0.00    -0.274 OA
ATOM     27  C   UNL     1      94.872 124.454 116.234  1.00  0.00     0.115 C 
ENDBRANCH   2  25
TORSDOF 4
ENDMDL
MODEL 13
REMARK VINA RESULT:    -6.788      4.953      8.008
REMARK INTER + INTRA:          -8.915
REMARK INTER:                  -8.213
REMARK INTRA:                  -0.703
REMARK UNBOUND:                -0.540
REMARK SMILES CCN(CC)C(=O)[C@@H]1C=C2c3cccc4c3c(cn4C(C)=O)C[C@H]2N(C)C1
REMARK SMILES IDX 25 1 19 2 24 3 10 4 23 5 8 6 27 7 17 8 11 9 16 10 9 11 15 12
REMARK SMILES IDX 18 13 26 14 12 15 14 16 13 17 6 18 7 19 3 20 2 21 1 22 4 23
REMARK SMILES IDX 5 24 20 25 22 26 21 27
REMARK H PARENT
ROOT
ATOM      1  N   UNL     1      99.505 121.106 114.589  1.00  0.00    -0.298 NA
ATOM      2  N   UNL     1      94.510 117.793 115.639  1.00  0.00    -0.287 N 
ATOM      3  C   UNL     1      98.490 120.133 115.064  1.00  0.00     0.091 C 
ATOM      4  C   UNL     1      99.010 118.670 115.043  1.00  0.00    -0.026 C 
ATOM      5  C   UNL     1      97.063 120.240 114.406  1.00  0.00     0.061 C 
ATOM      6  C   UNL     1     100.947 119.320 113.634  1.00  0.00     0.116 C 
ATOM      7  C   UNL     1     100.214 120.654 113.385  1.00  0.00     0.102 C 
ATOM      8  C   UNL     1      96.181 119.153 114.936  1.00  0.00    -0.019 A 
ATOM      9  C   UNL     1      98.106 117.658 115.628  1.00  0.00    -0.011 A 
ATOM     10  C   UNL     1      96.743 117.989 115.498  1.00  0.00     0.011 A 
ATOM     11  C   UNL     1     100.149 118.313 114.420  1.00  0.00    -0.007 C 
ATOM     12  C   UNL     1      95.723 117.147 115.942  1.00  0.00     0.056 A 
ATOM     13  C   UNL     1      94.822 119.013 115.024  1.00  0.00     0.099 A 
ATOM     14  C   UNL     1      99.004 122.466 114.446  1.00  0.00     0.106 C 
ATOM     15  C   UNL     1      98.442 116.447 116.227  1.00  0.00     0.009 A 
ATOM     16  C   UNL     1      96.072 115.926 116.549  1.00  0.00     0.027 A 
ATOM     17  C   UNL     1      97.434 115.599 116.683  1.00  0.00     0.003 A 
ENDROOT
BRANCH   6  18
ATOM     18  C   UNL     1     101.516 118.761 112.317  1.00  0.00     0.230 C 
ATOM     19  O   UNL     1     100.739 118.164 111.559  1.00  0.00    -0.274 OA
ATOM     20  N   UNL     1     102.867 118.880 111.988  1.00  0.00    -0.343 N 
BRANCH  20  21
ATOM     21  C   UNL     1     103.296 118.294 110.713  1.00  0.00     0.116 C 
ATOM     22  C   UNL     1     103.937 116.923 110.867  1.00  0.00     0.027 C 
ENDBRANCH  20  21
BRANCH  20  23
ATOM     23  C   UNL     1     103.895 119.585 112.764  1.00  0.00     0.116 C 
ATOM     24  C   UNL     1     104.501 120.770 112.028  1.00  0.00     0.027 C 
ENDBRANCH  20  23
ENDBRANCH   6  18
BRANCH   2  25
ATOM     25  C   UNL     1      93.172 117.394 115.863  1.00  0.00     0.227 C 
ATOM     26  O   UNL     1      92.565 116.811 114.970  1.00  0.00    -0.274 OA
ATOM     27  C   UNL     1      92.569 117.706 117.192  1.00  0.00     0.115 C 
ENDBRANCH   2  25
TORSDOF 4
ENDMDL
MODEL 14
REMARK VINA RESULT:    -6.657      5.120      9.787
REMARK INTER + INTRA:          -8.753
REMARK INTER:                  -8.167
REMARK INTRA:                  -0.586
REMARK UNBOUND:                -0.540
REMARK SMILES CCN(CC)C(=O)[C@@H]1C=C2c3cccc4c3c(cn4C(C)=O)C[C@H]2N(C)C1
REMARK SMILES IDX 25 1 19 2 24 3 10 4 23 5 8 6 27 7 17 8 11 9 16 10 9 11 15 12
REMARK SMILES IDX 18 13 26 14 12 15 14 16 13 17 6 18 7 19 3 20 2 21 1 22 4 23
REMARK SMILES IDX 5 24 20 25 22 26 21 27
REMARK H PARENT
ROOT
ATOM      1  N   UNL     1      95.841 120.725 111.911  1.00  0.00    -0.298 NA
ATOM      2  N   UNL     1     101.721 119.437 112.797  1.00  0.00    -0.287 N 
ATOM      3  C   UNL     1      97.151 120.191 112.357  1.00  0.00     0.091 C 
ATOM      4  C   UNL     1      97.293 120.171 113.903  1.00  0.00    -0.026 C 
ATOM      5  C   UNL     1      98.426 120.819 111.677  1.00  0.00     0.061 C 
ATOM      6  C   UNL     1      95.315 121.647 114.159  1.00  0.00     0.116 C 
ATOM      7  C   UNL     1      95.431 121.928 112.647  1.00  0.00     0.102 C 
ATOM      8  C   UNL     1      99.663 120.229 112.281  1.00  0.00    -0.019 A 
ATOM      9  C   UNL     1      98.515 119.528 114.428  1.00  0.00    -0.011 A 
ATOM     10  C   UNL     1      99.618 119.638 113.560  1.00  0.00     0.011 A 
ATOM     11  C   UNL     1      96.432 120.806 114.719  1.00  0.00    -0.007 C 
ATOM     12  C   UNL     1     100.880 119.140 113.885  1.00  0.00     0.056 A 
ATOM     13  C   UNL     1     100.951 120.104 111.836  1.00  0.00     0.099 A 
ATOM     14  C   UNL     1      95.732 120.907 110.470  1.00  0.00     0.106 C 
ATOM     15  C   UNL     1      98.694 118.893 115.654  1.00  0.00     0.009 A 
ATOM     16  C   UNL     1     101.052 118.496 115.126  1.00  0.00     0.027 A 
ATOM     17  C   UNL     1      99.947 118.382 115.990  1.00  0.00     0.003 A 
ENDROOT
BRANCH   6  18
ATOM     18  C   UNL     1      95.080 122.957 114.936  1.00  0.00     0.230 C 
ATOM     19  O   UNL     1      95.946 123.839 114.854  1.00  0.00    -0.274 OA
ATOM     20  N   UNL     1      93.956 123.145 115.740  1.00  0.00    -0.343 N 
BRANCH  20  21
ATOM     21  C   UNL     1      93.850 124.428 116.444  1.00  0.00     0.116 C 
ATOM     22  C   UNL     1      93.619 124.275 117.941  1.00  0.00     0.027 C 
ENDBRANCH  20  21
BRANCH  20  23
ATOM     23  C   UNL     1      92.837 122.211 115.908  1.00  0.00     0.116 C 
ATOM     24  C   UNL     1      93.181 121.000 116.762  1.00  0.00     0.027 C 
ENDBRANCH  20  23
ENDBRANCH   6  18
BRANCH   2  25
ATOM     25  C   UNL     1     103.094 119.167 112.593  1.00  0.00     0.227 C 
ATOM     26  O   UNL     1     103.923 119.687 113.335  1.00  0.00    -0.274 OA
ATOM     27  C   UNL     1     103.461 118.250 111.475  1.00  0.00     0.115 C 
ENDBRANCH   2  25
TORSDOF 4
ENDMDL
MODEL 15
REMARK VINA RESULT:    -6.595      4.955      7.169
REMARK INTER + INTRA:          -8.677
REMARK INTER:                  -8.053
REMARK INTRA:                  -0.624
REMARK UNBOUND:                -0.540
REMARK SMILES CCN(CC)C(=O)[C@@H]1C=C2c3cccc4c3c(cn4C(C)=O)C[C@H]2N(C)C1
REMARK SMILES IDX 25 1 19 2 24 3 10 4 23 5 8 6 27 7 17 8 11 9 16 10 9 11 15 12
REMARK SMILES IDX 18 13 26 14 12 15 14 16 13 17 6 18 7 19 3 20 2 21 1 22 4 23
REMARK SMILES IDX 5 24 20 25 22 26 21 27
REMARK H PARENT
ROOT
ATOM      1  N   UNL     1      99.585 120.304 112.485  1.00  0.00    -0.298 NA
ATOM      2  N   UNL     1      94.387 120.131 115.644  1.00  0.00    -0.287 N 
ATOM      3  C   UNL     1      98.525 120.196 113.517  1.00  0.00     0.091 C 
ATOM      4  C   UNL     1      98.668 118.918 114.388  1.00  0.00    -0.026 C 
ATOM      5  C   UNL     1      97.043 120.380 113.016  1.00  0.00     0.061 C 
ATOM      6  C   UNL     1     100.284 117.937 112.780  1.00  0.00     0.116 C 
ATOM      7  C   UNL     1      99.842 119.035 111.792  1.00  0.00     0.102 C 
ATOM      8  C   UNL     1      96.095 120.174 114.156  1.00  0.00    -0.019 A 
ATOM      9  C   UNL     1      97.731 118.807 115.525  1.00  0.00    -0.011 A 
ATOM     10  C   UNL     1      96.495 119.440 115.291  1.00  0.00     0.011 A 
ATOM     11  C   UNL     1      99.498 117.909 114.065  1.00  0.00    -0.007 C 
ATOM     12  C   UNL     1      95.453 119.413 116.218  1.00  0.00     0.056 A 
ATOM     13  C   UNL     1      94.808 120.581 114.385  1.00  0.00     0.099 A 
ATOM     14  C   UNL     1      99.393 121.405 111.550  1.00  0.00     0.106 C 
ATOM     15  C   UNL     1      97.916 118.136 116.731  1.00  0.00     0.009 A 
ATOM     16  C   UNL     1      95.650 118.734 117.435  1.00  0.00     0.027 A 
ATOM     17  C   UNL     1      96.887 118.107 117.670  1.00  0.00     0.003 A 
ENDROOT
BRANCH   6  18
ATOM     18  C   UNL     1     100.356 116.570 112.073  1.00  0.00     0.230 C 
ATOM     19  O   UNL     1      99.375 115.820 112.166  1.00  0.00    -0.274 OA
ATOM     20  N   UNL     1     101.495 116.159 111.380  1.00  0.00    -0.343 N 
BRANCH  20  21
ATOM     21  C   UNL     1     101.453 114.830 110.760  1.00  0.00     0.116 C 
ATOM     22  C   UNL     1     102.182 113.766 111.569  1.00  0.00     0.027 C 
ENDBRANCH  20  21
BRANCH  20  23
ATOM     23  C   UNL     1     102.713 116.948 111.156  1.00  0.00     0.116 C 
ATOM     24  C   UNL     1     102.817 117.516 109.750  1.00  0.00     0.027 C 
ENDBRANCH  20  23
ENDBRANCH   6  18
BRANCH   2  25
ATOM     25  C   UNL     1      93.094 120.416 116.140  1.00  0.00     0.227 C 
ATOM     26  O   UNL     1      92.701 121.579 116.154  1.00  0.00    -0.274 OA
ATOM     27  C   UNL     1      92.268 119.270 116.620  1.00  0.00     0.115 C 
ENDBRANCH   2  25
TORSDOF 4
ENDMDL
MODEL 16
REMARK VINA RESULT:    -6.522      5.701      9.285
REMARK INTER + INTRA:          -8.586
REMARK INTER:                  -8.004
REMARK INTRA:                  -0.582
REMARK UNBOUND:                -0.540
REMARK SMILES CCN(CC)C(=O)[C@@H]1C=C2c3cccc4c3c(cn4C(C)=O)C[C@H]2N(C)C1
REMARK SMILES IDX 25 1 19 2 24 3 10 4 23 5 8 6 27 7 17 8 11 9 16 10 9 11 15 12
REMARK SMILES IDX 18 13 26 14 12 15 14 16 13 17 6 18 7 19 3 20 2 21 1 22 4 23
REMARK SMILES IDX 5 24 20 25 22 26 21 27
REMARK H PARENT
ROOT
ATOM      1  N   UNL     1      96.546 122.012 113.063  1.00  0.00    -0.298 NA
ATOM      2  N   UNL     1      94.309 117.663 116.684  1.00  0.00    -0.287 N 
ATOM      3  C   UNL     1      96.127 121.148 114.194  1.00  0.00     0.091 C 
ATOM      4  C   UNL     1      97.280 120.880 115.200  1.00  0.00    -0.026 C 
ATOM      5  C   UNL     1      95.383 119.814 113.812  1.00  0.00     0.061 C 
ATOM      6  C   UNL     1      98.960 121.731 113.585  1.00  0.00     0.116 C 
ATOM      7  C   UNL     1      97.856 121.640 112.513  1.00  0.00     0.102 C 
ATOM      8  C   UNL     1      95.091 119.026 115.052  1.00  0.00    -0.019 A 
ATOM      9  C   UNL     1      96.906 120.141 116.424  1.00  0.00    -0.011 A 
ATOM     10  C   UNL     1      95.837 119.245 116.227  1.00  0.00     0.011 A 
ATOM     11  C   UNL     1      98.563 121.181 114.930  1.00  0.00    -0.007 C 
ATOM     12  C   UNL     1      95.358 118.416 117.242  1.00  0.00     0.056 A 
ATOM     13  C   UNL     1      94.171 118.056 115.346  1.00  0.00     0.099 A 
ATOM     14  C   UNL     1      95.539 122.156 112.020  1.00  0.00     0.106 C 
ATOM     15  C   UNL     1      97.500 120.201 117.681  1.00  0.00     0.009 A 
ATOM     16  C   UNL     1      95.964 118.486 118.512  1.00  0.00     0.027 A 
ATOM     17  C   UNL     1      97.028 119.385 118.708  1.00  0.00     0.003 A 
ENDROOT
BRANCH   6  18
ATOM     18  C   UNL     1     100.283 121.150 113.050  1.00  0.00     0.230 C 
ATOM     19  O   UNL     1     101.251 121.917 112.948  1.00  0.00    -0.274 OA
ATOM     20  N   UNL     1     100.396 119.818 112.651  1.00  0.00    -0.343 N 
BRANCH  20  21
ATOM     21  C   UNL     1     101.702 119.383 112.143  1.00  0.00     0.116 C 
ATOM     22  C   UNL     1     101.600 118.422 110.967  1.00  0.00     0.027 C 
ENDBRANCH  20  21
BRANCH  20  23
ATOM     23  C   UNL     1      99.353 118.788 112.745  1.00  0.00     0.116 C 
ATOM     24  C   UNL     1      99.455 117.936 114.000  1.00  0.00     0.027 C 
ENDBRANCH  20  23
ENDBRANCH   6  18
BRANCH   2  25
ATOM     25  C   UNL     1      93.477 116.675 117.258  1.00  0.00     0.227 C 
ATOM     26  O   UNL     1      93.560 115.517 116.857  1.00  0.00    -0.274 OA
ATOM     27  C   UNL     1      92.537 117.100 118.335  1.00  0.00     0.115 C 
ENDBRANCH   2  25
TORSDOF 4
ENDMDL
MODEL 17
REMARK VINA RESULT:    -6.429      5.503      8.808
REMARK INTER + INTRA:          -8.472
REMARK INTER:                  -7.896
REMARK INTRA:                  -0.576
REMARK UNBOUND:                -0.540
REMARK SMILES CCN(CC)C(=O)[C@@H]1C=C2c3cccc4c3c(cn4C(C)=O)C[C@H]2N(C)C1
REMARK SMILES IDX 25 1 19 2 24 3 10 4 23 5 8 6 27 7 17 8 11 9 16 10 9 11 15 12
REMARK SMILES IDX 18 13 26 14 12 15 14 16 13 17 6 18 7 19 3 20 2 21 1 22 4 23
REMARK SMILES IDX 5 24 20 25 22 26 21 27
REMARK H PARENT
ROOT
ATOM      1  N   UNL     1      96.926 121.082 111.384  1.00  0.00    -0.298 NA
ATOM      2  N   UNL     1      94.261 119.990 116.744  1.00  0.00    -0.287 N 
ATOM      3  C   UNL     1      96.378 121.133 112.762  1.00  0.00     0.091 C 
ATOM      4  C   UNL     1      97.416 121.646 113.798  1.00  0.00    -0.026 C 
ATOM      5  C   UNL     1      95.660 119.829 113.274  1.00  0.00     0.061 C 
ATOM      6  C   UNL     1      99.268 121.344 112.175  1.00  0.00     0.116 C 
ATOM      7  C   UNL     1      98.281 120.519 111.326  1.00  0.00     0.102 C 
ATOM      8  C   UNL     1      95.229 120.014 114.696  1.00  0.00    -0.019 A 
ATOM      9  C   UNL     1      96.906 121.854 115.169  1.00  0.00    -0.011 A 
ATOM     10  C   UNL     1      95.850 120.985 115.508  1.00  0.00     0.011 A 
ATOM     11  C   UNL     1      98.725 121.774 113.513  1.00  0.00    -0.007 C 
ATOM     12  C   UNL     1      95.257 120.984 116.770  1.00  0.00     0.056 A 
ATOM     13  C   UNL     1      94.270 119.415 115.467  1.00  0.00     0.099 A 
ATOM     14  C   UNL     1      96.036 120.459 110.414  1.00  0.00     0.106 C 
ATOM     15  C   UNL     1      97.366 122.747 116.133  1.00  0.00     0.009 A 
ATOM     16  C   UNL     1      95.728 121.892 117.738  1.00  0.00     0.027 A 
ATOM     17  C   UNL     1      96.778 122.764 117.396  1.00  0.00     0.003 A 
ENDROOT
BRANCH   6  18
ATOM     18  C   UNL     1     100.632 120.633 112.265  1.00  0.00     0.230 C 
ATOM     19  O   UNL     1     101.643 121.284 111.971  1.00  0.00    -0.274 OA
ATOM     20  N   UNL     1     100.739 119.289 112.626  1.00  0.00    -0.343 N 
BRANCH  20  21
ATOM     21  C   UNL     1     102.089 118.716 112.662  1.00  0.00     0.116 C 
ATOM     22  C   UNL     1     102.325 117.667 111.585  1.00  0.00     0.027 C 
ENDBRANCH  20  21
BRANCH  20  23
ATOM     23  C   UNL     1      99.640 118.405 113.033  1.00  0.00     0.116 C 
ATOM     24  C   UNL     1      99.410 118.377 114.536  1.00  0.00     0.027 C 
ENDBRANCH  20  23
ENDBRANCH   6  18
BRANCH   2  25
ATOM     25  C   UNL     1      93.360 119.561 117.746  1.00  0.00     0.227 C 
ATOM     26  O   UNL     1      92.166 119.823 117.628  1.00  0.00    -0.274 OA
ATOM     27  C   UNL     1      93.919 118.802 118.902  1.00  0.00     0.115 C 
ENDBRANCH   2  25
TORSDOF 4
ENDMDL
MODEL 18
REMARK VINA RESULT:    -6.313      7.431     11.458
REMARK INTER + INTRA:          -8.328
REMARK INTER:                  -7.826
REMARK INTRA:                  -0.502
REMARK UNBOUND:                -0.540
REMARK SMILES CCN(CC)C(=O)[C@@H]1C=C2c3cccc4c3c(cn4C(C)=O)C[C@H]2N(C)C1
REMARK SMILES IDX 25 1 19 2 24 3 10 4 23 5 8 6 27 7 17 8 11 9 16 10 9 11 15 12
REMARK SMILES IDX 18 13 26 14 12 15 14 16 13 17 6 18 7 19 3 20 2 21 1 22 4 23
REMARK SMILES IDX 5 24 20 25 22 26 21 27
REMARK H PARENT
ROOT
ATOM      1  N   UNL     1      99.153 119.487 115.589  1.00  0.00    -0.298 NA
ATOM      2  N   UNL     1      95.267 114.833 116.098  1.00  0.00    -0.287 N 
ATOM      3  C   UNL     1      98.015 118.539 115.501  1.00  0.00     0.091 C 
ATOM      4  C   UNL     1      96.643 119.231 115.726  1.00  0.00    -0.026 C 
ATOM      5  C   UNL     1      98.137 117.224 116.358  1.00  0.00     0.061 C 
ATOM      6  C   UNL     1      97.752 121.262 116.622  1.00  0.00     0.116 C 
ATOM      7  C   UNL     1      99.038 120.417 116.720  1.00  0.00     0.102 C 
ATOM      8  C   UNL     1      96.887 116.411 116.217  1.00  0.00    -0.019 A 
ATOM      9  C   UNL     1      95.453 118.380 115.519  1.00  0.00    -0.011 A 
ATOM     10  C   UNL     1      95.683 117.022 115.812  1.00  0.00     0.011 A 
ATOM     11  C   UNL     1      96.531 120.484 116.203  1.00  0.00    -0.007 C 
ATOM     12  C   UNL     1      94.679 116.057 115.728  1.00  0.00     0.056 A 
ATOM     13  C   UNL     1      96.614 115.082 116.393  1.00  0.00     0.099 A 
ATOM     14  C   UNL     1     100.462 118.851 115.540  1.00  0.00     0.106 C 
ATOM     15  C   UNL     1      94.175 118.768 115.127  1.00  0.00     0.009 A 
ATOM     16  C   UNL     1      93.390 116.458 115.328  1.00  0.00     0.027 A 
ATOM     17  C   UNL     1      93.163 117.814 115.030  1.00  0.00     0.003 A 
ENDROOT
BRANCH   6  18
ATOM     18  C   UNL     1      97.546 122.085 117.907  1.00  0.00     0.230 C 
ATOM     19  O   UNL     1      97.653 121.497 118.992  1.00  0.00    -0.274 OA
ATOM     20  N   UNL     1      97.211 123.439 117.870  1.00  0.00    -0.343 N 
BRANCH  20  21
ATOM     21  C   UNL     1      97.024 124.114 119.159  1.00  0.00     0.116 C 
ATOM     22  C   UNL     1      98.061 125.196 119.426  1.00  0.00     0.027 C 
ENDBRANCH  20  21
BRANCH  20  23
ATOM     23  C   UNL     1      97.084 124.274 116.669  1.00  0.00     0.116 C 
ATOM     24  C   UNL     1      95.670 124.323 116.113  1.00  0.00     0.027 C 
ENDBRANCH  20  23
ENDBRANCH   6  18
BRANCH   2  25
ATOM     25  C   UNL     1      94.713 113.535 116.191  1.00  0.00     0.227 C 
ATOM     26  O   UNL     1      95.239 112.713 116.935  1.00  0.00    -0.274 OA
ATOM     27  C   UNL     1      93.502 113.238 115.372  1.00  0.00     0.115 C 
ENDBRANCH   2  25
TORSDOF 4
ENDMDL
MODEL 19
REMARK VINA RESULT:    -6.209      7.898      9.934
REMARK INTER + INTRA:          -8.200
REMARK INTER:                  -7.773
REMARK INTRA:                  -0.427
REMARK UNBOUND:                -0.540
REMARK SMILES CCN(CC)C(=O)[C@@H]1C=C2c3cccc4c3c(cn4C(C)=O)C[C@H]2N(C)C1
REMARK SMILES IDX 25 1 19 2 24 3 10 4 23 5 8 6 27 7 17 8 11 9 16 10 9 11 15 12
REMARK SMILES IDX 18 13 26 14 12 15 14 16 13 17 6 18 7 19 3 20 2 21 1 22 4 23
REMARK SMILES IDX 5 24 20 25 22 26 21 27
REMARK H PARENT
ROOT
ATOM      1  N   UNL     1      98.214 118.265 116.893  1.00  0.00    -0.298 NA
ATOM      2  N   UNL     1      95.044 123.455 117.089  1.00  0.00    -0.287 N 
ATOM      3  C   UNL     1      97.333 119.407 117.240  1.00  0.00     0.091 C 
ATOM      4  C   UNL     1      95.917 118.954 117.688  1.00  0.00    -0.026 C 
ATOM      5  C   UNL     1      97.251 120.569 116.180  1.00  0.00     0.061 C 
ATOM      6  C   UNL     1      96.313 116.665 116.816  1.00  0.00     0.116 C 
ATOM      7  C   UNL     1      97.538 117.245 116.081  1.00  0.00     0.102 C 
ATOM      8  C   UNL     1      96.274 121.606 116.642  1.00  0.00    -0.019 A 
ATOM      9  C   UNL     1      95.025 120.025 118.179  1.00  0.00    -0.011 A 
ATOM     10  C   UNL     1      95.277 121.276 117.581  1.00  0.00     0.011 A 
ATOM     11  C   UNL     1      95.472 117.695 117.525  1.00  0.00    -0.007 C 
ATOM     12  C   UNL     1      94.517 122.409 117.870  1.00  0.00     0.056 A 
ATOM     13  C   UNL     1      96.113 122.933 116.349  1.00  0.00     0.099 A 
ATOM     14  C   UNL     1      99.495 118.655 116.320  1.00  0.00     0.106 C 
ATOM     15  C   UNL     1      93.982 119.924 119.095  1.00  0.00     0.009 A 
ATOM     16  C   UNL     1      93.465 122.298 118.800  1.00  0.00     0.027 A 
ATOM     17  C   UNL     1      93.219 121.050 119.400  1.00  0.00     0.003 A 
ENDROOT
BRANCH   6  18
ATOM     18  C   UNL     1      95.503 115.749 115.879  1.00  0.00     0.230 C 
ATOM     19  O   UNL     1      94.595 116.262 115.212  1.00  0.00    -0.274 OA
ATOM     20  N   UNL     1      95.746 114.377 115.800  1.00  0.00    -0.343 N 
BRANCH  20  21
ATOM     21  C   UNL     1      94.900 113.603 114.883  1.00  0.00     0.116 C 
ATOM     22  C   UNL     1      93.587 113.156 115.510  1.00  0.00     0.027 C 
ENDBRANCH  20  21
BRANCH  20  23
ATOM     23  C   UNL     1      96.803 113.636 116.499  1.00  0.00     0.116 C 
ATOM     24  C   UNL     1      98.185 113.841 115.897  1.00  0.00     0.027 C 
ENDBRANCH  20  23
ENDBRANCH   6  18
BRANCH   2  25
ATOM     25  C   UNL     1      94.659 124.811 116.984  1.00  0.00     0.227 C 
ATOM     26  O   UNL     1      93.511 125.083 116.645  1.00  0.00    -0.274 OA
ATOM     27  C   UNL     1      95.684 125.848 117.299  1.00  0.00     0.115 C 
ENDBRANCH   2  25
TORSDOF 4
ENDMDL
