MODEL 1
REMARK VINA RESULT:    -9.415      0.000      0.000
REMARK INTER + INTRA:         -10.088
REMARK INTER:                  -9.965
REMARK INTRA:                  -0.123
REMARK UNBOUND:                -0.123
REMARK SMILES CN1C[C@H](C(N)=O)C=C2c3cccc4[nH]cc(c34)C[C@H]21
REMARK SMILES IDX 2 1 15 2 20 3 9 4 19 5 3 6 4 7 17 8 10 9 18 10 8 11 14 12
REMARK SMILES IDX 1 13 16 14 11 15 13 16 12 17 5 19 7 20 6 21
REMARK H PARENT 15 18 6 22 6 23
ROOT
ATOM      1  N   UNL     1     105.737 136.431 126.496  1.00  0.00    -0.298 NA
ATOM      2  N   UNL     1     108.523 141.760 126.596  1.00  0.00    -0.361 N 
ATOM      3  C   UNL     1     106.589 137.588 126.080  1.00  0.00     0.091 C 
ATOM      4  C   UNL     1     108.105 137.222 125.966  1.00  0.00    -0.026 C 
ATOM      5  C   UNL     1     106.329 138.816 127.034  1.00  0.00     0.061 C 
ATOM      6  C   UNL     1     106.168 135.198 125.805  1.00  0.00     0.102 C 
ATOM      7  C   UNL     1     107.593 134.799 126.225  1.00  0.00     0.115 C 
ATOM      8  C   UNL     1     107.318 139.903 126.787  1.00  0.00    -0.020 A 
ATOM      9  C   UNL     1     109.049 138.346 125.766  1.00  0.00    -0.011 A 
ATOM     10  C   UNL     1     108.560 139.587 126.197  1.00  0.00     0.010 A 
ATOM     11  C   UNL     1     108.549 135.954 126.066  1.00  0.00    -0.007 C 
ATOM     12  C   UNL     1     109.304 140.749 126.079  1.00  0.00     0.046 A 
ATOM     13  C   UNL     1     104.320 136.675 126.209  1.00  0.00     0.106 C 
ATOM     14  C   UNL     1     107.314 141.258 127.029  1.00  0.00     0.087 A 
ATOM     15  C   UNL     1     110.330 138.323 125.203  1.00  0.00     0.009 A 
ATOM     16  C   UNL     1     110.586 140.741 125.525  1.00  0.00     0.027 A 
ATOM     17  C   UNL     1     111.081 139.502 125.087  1.00  0.00     0.003 A 
ATOM     18  H   UNL     1     108.802 142.729 126.649  1.00  0.00     0.166 HD
ENDROOT
BRANCH   7  19
ATOM     19  C   UNL     1     108.067 133.606 125.389  1.00  0.00     0.225 C 
ATOM     20  O   UNL     1     108.075 132.441 125.770  1.00  0.00    -0.275 OA
ATOM     21  N   UNL     1     108.498 133.919 124.128  1.00  0.00    -0.369 N 
ATOM     22  H   UNL     1     108.865 133.165 123.561  1.00  0.00     0.159 HD
ATOM     23  H   UNL     1     108.631 134.871 123.818  1.00  0.00     0.159 HD
ENDBRANCH   7  19
TORSDOF 1
ENDMDL
MODEL 2
REMARK VINA RESULT:    -9.203      2.135      3.816
REMARK INTER + INTRA:          -9.864
REMARK INTER:                  -9.758
REMARK INTRA:                  -0.107
REMARK UNBOUND:                -0.123
REMARK SMILES CN1C[C@H](C(N)=O)C=C2c3cccc4[nH]cc(c34)C[C@H]21
REMARK SMILES IDX 2 1 15 2 20 3 9 4 19 5 3 6 4 7 17 8 10 9 18 10 8 11 14 12
REMARK SMILES IDX 1 13 16 14 11 15 13 16 12 17 5 19 7 20 6 21
REMARK H PARENT 15 18 6 22 6 23
ROOT
ATOM      1  N   UNL     1     106.821 134.906 126.335  1.00  0.00    -0.298 NA
ATOM      2  N   UNL     1     110.337 139.708 125.468  1.00  0.00    -0.361 N 
ATOM      3  C   UNL     1     107.501 136.219 126.562  1.00  0.00     0.091 C 
ATOM      4  C   UNL     1     106.507 137.425 126.600  1.00  0.00    -0.026 C 
ATOM      5  C   UNL     1     108.656 136.415 125.506  1.00  0.00     0.061 C 
ATOM      6  C   UNL     1     105.569 134.831 127.118  1.00  0.00     0.102 C 
ATOM      7  C   UNL     1     104.554 135.881 126.638  1.00  0.00     0.115 C 
ATOM      8  C   UNL     1     109.202 137.800 125.563  1.00  0.00    -0.020 A 
ATOM      9  C   UNL     1     107.104 138.781 126.610  1.00  0.00    -0.011 A 
ATOM     10  C   UNL     1     108.403 138.838 126.089  1.00  0.00     0.010 A 
ATOM     11  C   UNL     1     105.170 137.257 126.602  1.00  0.00    -0.007 C 
ATOM     12  C   UNL     1     109.117 140.022 126.028  1.00  0.00     0.046 A 
ATOM     13  C   UNL     1     107.686 133.781 126.699  1.00  0.00     0.106 C 
ATOM     14  C   UNL     1     110.399 138.360 125.181  1.00  0.00     0.087 A 
ATOM     15  C   UNL     1     106.548 139.978 127.076  1.00  0.00     0.009 A 
ATOM     16  C   UNL     1     108.574 141.226 126.484  1.00  0.00     0.027 A 
ATOM     17  C   UNL     1     107.274 141.176 127.011  1.00  0.00     0.003 A 
ATOM     18  H   UNL     1     111.076 140.374 125.292  1.00  0.00     0.166 HD
ENDROOT
BRANCH   7  19
ATOM     19  C   UNL     1     103.329 135.878 127.556  1.00  0.00     0.225 C 
ATOM     20  O   UNL     1     103.129 136.676 128.465  1.00  0.00    -0.275 OA
ATOM     21  N   UNL     1     102.413 134.893 127.296  1.00  0.00    -0.369 N 
ATOM     22  H   UNL     1     101.613 134.827 127.911  1.00  0.00     0.159 HD
ATOM     23  H   UNL     1     102.594 134.140 126.647  1.00  0.00     0.159 HD
ENDBRANCH   7  19
TORSDOF 1
ENDMDL
MODEL 3
REMARK VINA RESULT:    -9.126      2.798      4.674
REMARK INTER + INTRA:          -9.782
REMARK INTER:                  -9.676
REMARK INTRA:                  -0.106
REMARK UNBOUND:                -0.123
REMARK SMILES CN1C[C@H](C(N)=O)C=C2c3cccc4[nH]cc(c34)C[C@H]21
REMARK SMILES IDX 2 1 15 2 20 3 9 4 19 5 3 6 4 7 17 8 10 9 18 10 8 11 14 12
REMARK SMILES IDX 1 13 16 14 11 15 13 16 12 17 5 19 7 20 6 21
REMARK H PARENT 15 18 6 22 6 23
ROOT
ATOM      1  N   UNL     1     105.134 135.975 127.350  1.00  0.00    -0.298 NA
ATOM      2  N   UNL     1     110.430 136.626 124.573  1.00  0.00    -0.361 N 
ATOM      3  C   UNL     1     106.532 136.425 127.058  1.00  0.00     0.091 C 
ATOM      4  C   UNL     1     106.640 137.965 126.810  1.00  0.00    -0.026 C 
ATOM      5  C   UNL     1     107.132 135.574 125.873  1.00  0.00     0.061 C 
ATOM      6  C   UNL     1     104.461 136.936 128.249  1.00  0.00     0.102 C 
ATOM      7  C   UNL     1     104.292 138.304 127.569  1.00  0.00     0.115 C 
ATOM      8  C   UNL     1     108.430 136.143 125.412  1.00  0.00    -0.020 A 
ATOM      9  C   UNL     1     107.939 138.470 126.310  1.00  0.00    -0.011 A 
ATOM     10  C   UNL     1     108.715 137.503 125.657  1.00  0.00     0.010 A 
ATOM     11  C   UNL     1     105.605 138.802 127.016  1.00  0.00    -0.007 C 
ATOM     12  C   UNL     1     109.963 137.796 125.132  1.00  0.00     0.046 A 
ATOM     13  C   UNL     1     105.114 134.644 127.962  1.00  0.00     0.106 C 
ATOM     14  C   UNL     1     109.506 135.615 124.737  1.00  0.00     0.087 A 
ATOM     15  C   UNL     1     108.478 139.757 126.418  1.00  0.00     0.009 A 
ATOM     16  C   UNL     1     110.511 139.077 125.227  1.00  0.00     0.027 A 
ATOM     17  C   UNL     1     109.741 140.050 125.884  1.00  0.00     0.003 A 
ATOM     18  H   UNL     1     111.321 136.529 124.107  1.00  0.00     0.166 HD
ENDROOT
BRANCH   7  19
ATOM     19  C   UNL     1     103.726 139.316 128.569  1.00  0.00     0.225 C 
ATOM     20  O   UNL     1     104.399 140.038 129.296  1.00  0.00    -0.275 OA
ATOM     21  N   UNL     1     102.358 139.384 128.610  1.00  0.00    -0.369 N 
ATOM     22  H   UNL     1     101.944 140.006 129.293  1.00  0.00     0.159 HD
ATOM     23  H   UNL     1     101.766 138.723 128.128  1.00  0.00     0.159 HD
ENDBRANCH   7  19
TORSDOF 1
ENDMDL
MODEL 4
REMARK VINA RESULT:    -8.919      2.529      4.843
REMARK INTER + INTRA:          -9.563
REMARK INTER:                  -9.455
REMARK INTRA:                  -0.108
REMARK UNBOUND:                -0.123
REMARK SMILES CN1C[C@H](C(N)=O)C=C2c3cccc4[nH]cc(c34)C[C@H]21
REMARK SMILES IDX 2 1 15 2 20 3 9 4 19 5 3 6 4 7 17 8 10 9 18 10 8 11 14 12
REMARK SMILES IDX 1 13 16 14 11 15 13 16 12 17 5 19 7 20 6 21
REMARK H PARENT 15 18 6 22 6 23
ROOT
ATOM      1  N   UNL     1     106.959 140.577 127.620  1.00  0.00    -0.298 NA
ATOM      2  N   UNL     1     111.101 137.611 124.424  1.00  0.00    -0.361 N 
ATOM      3  C   UNL     1     107.576 139.660 126.611  1.00  0.00     0.091 C 
ATOM      4  C   UNL     1     107.242 138.154 126.868  1.00  0.00    -0.026 C 
ATOM      5  C   UNL     1     109.127 139.933 126.518  1.00  0.00     0.061 C 
ATOM      6  C   UNL     1     105.578 140.150 127.928  1.00  0.00     0.102 C 
ATOM      7  C   UNL     1     105.565 138.768 128.603  1.00  0.00     0.115 C 
ATOM      8  C   UNL     1     109.803 138.891 125.692  1.00  0.00    -0.020 A 
ATOM      9  C   UNL     1     107.976 137.160 126.051  1.00  0.00    -0.011 A 
ATOM     10  C   UNL     1     109.192 137.628 125.537  1.00  0.00     0.010 A 
ATOM     11  C   UNL     1     106.350 137.763 127.798  1.00  0.00    -0.007 C 
ATOM     12  C   UNL     1     110.006 136.837 124.744  1.00  0.00     0.046 A 
ATOM     13  C   UNL     1     106.941 141.964 127.146  1.00  0.00     0.106 C 
ATOM     14  C   UNL     1     110.988 138.861 124.995  1.00  0.00     0.087 A 
ATOM     15  C   UNL     1     107.607 135.849 125.728  1.00  0.00     0.009 A 
ATOM     16  C   UNL     1     109.654 135.526 124.417  1.00  0.00     0.027 A 
ATOM     17  C   UNL     1     108.435 135.051 124.926  1.00  0.00     0.003 A 
ATOM     18  H   UNL     1     111.875 137.301 123.853  1.00  0.00     0.166 HD
ENDROOT
BRANCH   7  19
ATOM     19  C   UNL     1     104.121 138.288 128.779  1.00  0.00     0.225 C 
ATOM     20  O   UNL     1     103.772 137.357 129.496  1.00  0.00    -0.275 OA
ATOM     21  N   UNL     1     103.188 138.991 128.064  1.00  0.00    -0.369 N 
ATOM     22  H   UNL     1     102.227 138.675 128.115  1.00  0.00     0.159 HD
ATOM     23  H   UNL     1     103.439 139.676 127.366  1.00  0.00     0.159 HD
ENDBRANCH   7  19
TORSDOF 1
ENDMDL
MODEL 5
REMARK VINA RESULT:    -8.847      1.323      1.414
REMARK INTER + INTRA:          -9.486
REMARK INTER:                  -9.382
REMARK INTRA:                  -0.104
REMARK UNBOUND:                -0.123
REMARK SMILES CN1C[C@H](C(N)=O)C=C2c3cccc4[nH]cc(c34)C[C@H]21
REMARK SMILES IDX 2 1 15 2 20 3 9 4 19 5 3 6 4 7 17 8 10 9 18 10 8 11 14 12
REMARK SMILES IDX 1 13 16 14 11 15 13 16 12 17 5 19 7 20 6 21
REMARK H PARENT 15 18 6 22 6 23
ROOT
ATOM      1  N   UNL     1     105.844 137.655 127.213  1.00  0.00    -0.298 NA
ATOM      2  N   UNL     1     109.803 141.992 125.913  1.00  0.00    -0.361 N 
ATOM      3  C   UNL     1     106.871 138.457 126.478  1.00  0.00     0.091 C 
ATOM      4  C   UNL     1     108.217 137.689 126.273  1.00  0.00    -0.026 C 
ATOM      5  C   UNL     1     107.068 139.854 127.185  1.00  0.00     0.061 C 
ATOM      6  C   UNL     1     105.852 136.253 126.744  1.00  0.00     0.102 C 
ATOM      7  C   UNL     1     107.188 135.568 127.075  1.00  0.00     0.115 C 
ATOM      8  C   UNL     1     108.236 140.581 126.613  1.00  0.00    -0.020 A 
ATOM      9  C   UNL     1     109.358 138.472 125.744  1.00  0.00    -0.011 A 
ATOM     10  C   UNL     1     109.255 139.852 125.964  1.00  0.00     0.010 A 
ATOM     11  C   UNL     1     108.355 136.384 126.579  1.00  0.00    -0.007 C 
ATOM     12  C   UNL     1     110.227 140.737 125.530  1.00  0.00     0.046 A 
ATOM     13  C   UNL     1     104.500 138.214 127.042  1.00  0.00     0.106 C 
ATOM     14  C   UNL     1     108.594 141.909 126.572  1.00  0.00     0.087 A 
ATOM     15  C   UNL     1     110.489 138.015 125.058  1.00  0.00     0.009 A 
ATOM     16  C   UNL     1     111.364 140.297 124.849  1.00  0.00     0.027 A 
ATOM     17  C   UNL     1     111.471 138.915 124.622  1.00  0.00     0.003 A 
ATOM     18  H   UNL     1     110.311 142.847 125.737  1.00  0.00     0.166 HD
ENDROOT
BRANCH   7  19
ATOM     19  C   UNL     1     107.223 134.169 126.453  1.00  0.00     0.225 C 
ATOM     20  O   UNL     1     107.382 133.934 125.260  1.00  0.00    -0.275 OA
ATOM     21  N   UNL     1     107.067 133.138 127.341  1.00  0.00    -0.369 N 
ATOM     22  H   UNL     1     107.036 132.199 126.963  1.00  0.00     0.159 HD
ATOM     23  H   UNL     1     106.807 133.284 128.306  1.00  0.00     0.159 HD
ENDBRANCH   7  19
TORSDOF 1
ENDMDL
MODEL 6
REMARK VINA RESULT:    -8.663      2.681      4.558
REMARK INTER + INTRA:          -9.293
REMARK INTER:                  -9.178
REMARK INTRA:                  -0.115
REMARK UNBOUND:                -0.123
REMARK SMILES CN1C[C@H](C(N)=O)C=C2c3cccc4[nH]cc(c34)C[C@H]21
REMARK SMILES IDX 2 1 15 2 20 3 9 4 19 5 3 6 4 7 17 8 10 9 18 10 8 11 14 12
REMARK SMILES IDX 1 13 16 14 11 15 13 16 12 17 5 19 7 20 6 21
REMARK H PARENT 15 18 6 22 6 23
ROOT
ATOM      1  N   UNL     1     105.592 138.559 128.168  1.00  0.00    -0.298 NA
ATOM      2  N   UNL     1     110.359 137.094 124.806  1.00  0.00    -0.361 N 
ATOM      3  C   UNL     1     106.414 138.023 127.037  1.00  0.00     0.091 C 
ATOM      4  C   UNL     1     106.300 136.472 126.880  1.00  0.00    -0.026 C 
ATOM      5  C   UNL     1     107.906 138.514 127.180  1.00  0.00     0.061 C 
ATOM      6  C   UNL     1     104.276 137.888 128.211  1.00  0.00     0.102 C 
ATOM      7  C   UNL     1     104.430 136.390 128.522  1.00  0.00     0.115 C 
ATOM      8  C   UNL     1     108.792 137.820 126.203  1.00  0.00    -0.020 A 
ATOM      9  C   UNL     1     107.236 135.829 125.928  1.00  0.00    -0.011 A 
ATOM     10  C   UNL     1     108.397 136.571 125.677  1.00  0.00     0.010 A 
ATOM     11  C   UNL     1     105.416 135.740 127.584  1.00  0.00    -0.007 C 
ATOM     12  C   UNL     1     109.378 136.126 124.807  1.00  0.00     0.046 A 
ATOM     13  C   UNL     1     105.393 140.006 128.050  1.00  0.00     0.106 C 
ATOM     14  C   UNL     1     110.014 138.128 125.651  1.00  0.00     0.087 A 
ATOM     15  C   UNL     1     107.097 134.609 125.255  1.00  0.00     0.009 A 
ATOM     16  C   UNL     1     109.258 134.909 124.133  1.00  0.00     0.027 A 
ATOM     17  C   UNL     1     108.093 134.162 124.376  1.00  0.00     0.003 A 
ATOM     18  H   UNL     1     111.210 137.047 124.263  1.00  0.00     0.166 HD
ENDROOT
BRANCH   7  19
ATOM     19  C   UNL     1     103.070 135.695 128.419  1.00  0.00     0.225 C 
ATOM     20  O   UNL     1     102.017 136.140 128.863  1.00  0.00    -0.275 OA
ATOM     21  N   UNL     1     103.084 134.491 127.766  1.00  0.00    -0.369 N 
ATOM     22  H   UNL     1     102.213 133.976 127.719  1.00  0.00     0.159 HD
ATOM     23  H   UNL     1     103.940 134.026 127.499  1.00  0.00     0.159 HD
ENDBRANCH   7  19
TORSDOF 1
ENDMDL
MODEL 7
REMARK VINA RESULT:    -8.661      2.601      4.323
REMARK INTER + INTRA:          -9.290
REMARK INTER:                  -9.180
REMARK INTRA:                  -0.111
REMARK UNBOUND:                -0.123
REMARK SMILES CN1C[C@H](C(N)=O)C=C2c3cccc4[nH]cc(c34)C[C@H]21
REMARK SMILES IDX 2 1 15 2 20 3 9 4 19 5 3 6 4 7 17 8 10 9 18 10 8 11 14 12
REMARK SMILES IDX 1 13 16 14 11 15 13 16 12 17 5 19 7 20 6 21
REMARK H PARENT 15 18 6 22 6 23
ROOT
ATOM      1  N   UNL     1     106.173 134.353 127.036  1.00  0.00    -0.298 NA
ATOM      2  N   UNL     1     110.741 137.253 124.410  1.00  0.00    -0.361 N 
ATOM      3  C   UNL     1     107.312 135.301 126.827  1.00  0.00     0.091 C 
ATOM      4  C   UNL     1     106.875 136.801 126.863  1.00  0.00    -0.026 C 
ATOM      5  C   UNL     1     108.088 134.923 125.507  1.00  0.00     0.061 C 
ATOM      6  C   UNL     1     105.273 134.855 128.097  1.00  0.00     0.102 C 
ATOM      7  C   UNL     1     104.606 136.175 127.676  1.00  0.00     0.115 C 
ATOM      8  C   UNL     1     109.084 135.974 125.153  1.00  0.00    -0.020 A 
ATOM      9  C   UNL     1     107.891 137.801 126.458  1.00  0.00    -0.011 A 
ATOM     10  C   UNL     1     108.905 137.287 125.640  1.00  0.00     0.010 A 
ATOM     11  C   UNL     1     105.633 137.181 127.219  1.00  0.00    -0.007 C 
ATOM     12  C   UNL     1     109.942 138.077 125.174  1.00  0.00     0.046 A 
ATOM     13  C   UNL     1     106.645 133.014 127.398  1.00  0.00     0.106 C 
ATOM     14  C   UNL     1     110.229 135.973 124.391  1.00  0.00     0.087 A 
ATOM     15  C   UNL     1     107.967 139.157 126.797  1.00  0.00     0.009 A 
ATOM     16  C   UNL     1     110.029 139.433 125.498  1.00  0.00     0.027 A 
ATOM     17  C   UNL     1     109.018 139.954 126.322  1.00  0.00     0.003 A 
ATOM     18  H   UNL     1     111.580 137.550 123.933  1.00  0.00     0.166 HD
ENDROOT
BRANCH   7  19
ATOM     19  C   UNL     1     103.796 136.744 128.844  1.00  0.00     0.225 C 
ATOM     20  O   UNL     1     102.772 137.408 128.731  1.00  0.00    -0.275 OA
ATOM     21  N   UNL     1     104.293 136.455 130.087  1.00  0.00    -0.369 N 
ATOM     22  H   UNL     1     103.813 136.853 130.884  1.00  0.00     0.159 HD
ATOM     23  H   UNL     1     105.196 136.025 130.226  1.00  0.00     0.159 HD
ENDBRANCH   7  19
TORSDOF 1
ENDMDL
MODEL 8
REMARK VINA RESULT:    -8.391      1.689      1.878
REMARK INTER + INTRA:          -9.004
REMARK INTER:                  -8.882
REMARK INTRA:                  -0.123
REMARK UNBOUND:                -0.123
REMARK SMILES CN1C[C@H](C(N)=O)C=C2c3cccc4[nH]cc(c34)C[C@H]21
REMARK SMILES IDX 2 1 15 2 20 3 9 4 19 5 3 6 4 7 17 8 10 9 18 10 8 11 14 12
REMARK SMILES IDX 1 13 16 14 11 15 13 16 12 17 5 19 7 20 6 21
REMARK H PARENT 15 18 6 22 6 23
ROOT
ATOM      1  N   UNL     1     105.023 135.631 128.231  1.00  0.00    -0.298 NA
ATOM      2  N   UNL     1     107.703 140.784 126.670  1.00  0.00    -0.361 N 
ATOM      3  C   UNL     1     105.776 136.647 127.430  1.00  0.00     0.091 C 
ATOM      4  C   UNL     1     107.257 136.231 127.153  1.00  0.00    -0.026 C 
ATOM      5  C   UNL     1     105.658 138.063 128.115  1.00  0.00     0.061 C 
ATOM      6  C   UNL     1     105.352 134.265 127.772  1.00  0.00     0.102 C 
ATOM      7  C   UNL     1     106.833 133.939 128.029  1.00  0.00     0.115 C 
ATOM      8  C   UNL     1     106.576 139.045 127.470  1.00  0.00    -0.020 A 
ATOM      9  C   UNL     1     108.137 137.261 126.552  1.00  0.00    -0.011 A 
ATOM     10  C   UNL     1     107.707 138.577 126.768  1.00  0.00     0.010 A 
ATOM     11  C   UNL     1     107.731 135.008 127.459  1.00  0.00    -0.007 C 
ATOM     12  C   UNL     1     108.403 139.666 126.271  1.00  0.00     0.046 A 
ATOM     13  C   UNL     1     103.574 135.836 128.135  1.00  0.00     0.106 C 
ATOM     14  C   UNL     1     106.591 140.419 127.399  1.00  0.00     0.087 A 
ATOM     15  C   UNL     1     109.307 137.083 125.804  1.00  0.00     0.009 A 
ATOM     16  C   UNL     1     109.575 139.506 125.528  1.00  0.00     0.027 A 
ATOM     17  C   UNL     1     110.009 138.189 125.304  1.00  0.00     0.003 A 
ATOM     18  H   UNL     1     107.972 141.734 126.458  1.00  0.00     0.166 HD
ENDROOT
BRANCH   7  19
ATOM     19  C   UNL     1     107.179 132.579 127.416  1.00  0.00     0.225 C 
ATOM     20  O   UNL     1     107.311 131.537 128.047  1.00  0.00    -0.275 OA
ATOM     21  N   UNL     1     107.338 132.582 126.055  1.00  0.00    -0.369 N 
ATOM     22  H   UNL     1     107.615 131.713 125.617  1.00  0.00     0.159 HD
ATOM     23  H   UNL     1     107.367 133.433 125.512  1.00  0.00     0.159 HD
ENDBRANCH   7  19
TORSDOF 1
ENDMDL
MODEL 9
REMARK VINA RESULT:    -8.377      4.096      5.789
REMARK INTER + INTRA:          -8.989
REMARK INTER:                  -8.875
REMARK INTRA:                  -0.115
REMARK UNBOUND:                -0.123
REMARK SMILES CN1C[C@H](C(N)=O)C=C2c3cccc4[nH]cc(c34)C[C@H]21
REMARK SMILES IDX 2 1 15 2 20 3 9 4 19 5 3 6 4 7 17 8 10 9 18 10 8 11 14 12
REMARK SMILES IDX 1 13 16 14 11 15 13 16 12 17 5 19 7 20 6 21
REMARK H PARENT 15 18 6 22 6 23
ROOT
ATOM      1  N   UNL     1     108.544 130.652 126.105  1.00  0.00    -0.298 NA
ATOM      2  N   UNL     1     105.941 135.688 128.114  1.00  0.00    -0.361 N 
ATOM      3  C   UNL     1     107.604 131.811 126.212  1.00  0.00     0.091 C 
ATOM      4  C   UNL     1     107.708 132.797 125.002  1.00  0.00    -0.026 C 
ATOM      5  C   UNL     1     107.797 132.531 127.602  1.00  0.00     0.061 C 
ATOM      6  C   UNL     1     108.581 130.145 124.717  1.00  0.00     0.102 C 
ATOM      7  C   UNL     1     109.160 131.200 123.760  1.00  0.00     0.115 C 
ATOM      8  C   UNL     1     107.040 133.814 127.648  1.00  0.00    -0.020 A 
ATOM      9  C   UNL     1     106.972 134.077 125.121  1.00  0.00    -0.011 A 
ATOM     10  C   UNL     1     106.705 134.463 126.441  1.00  0.00     0.010 A 
ATOM     11  C   UNL     1     108.444 132.519 123.909  1.00  0.00    -0.007 C 
ATOM     12  C   UNL     1     106.019 135.629 126.739  1.00  0.00     0.046 A 
ATOM     13  C   UNL     1     108.159 129.562 127.007  1.00  0.00     0.106 C 
ATOM     14  C   UNL     1     106.558 134.590 128.677  1.00  0.00     0.087 A 
ATOM     15  C   UNL     1     106.511 134.918 124.101  1.00  0.00     0.009 A 
ATOM     16  C   UNL     1     105.558 136.481 125.733  1.00  0.00     0.027 A 
ATOM     17  C   UNL     1     105.818 136.098 124.408  1.00  0.00     0.003 A 
ATOM     18  H   UNL     1     105.496 136.432 128.631  1.00  0.00     0.166 HD
ENDROOT
BRANCH   7  19
ATOM     19  C   UNL     1     109.053 130.705 122.315  1.00  0.00     0.225 C 
ATOM     20  O   UNL     1     109.932 130.815 121.467  1.00  0.00    -0.275 OA
ATOM     21  N   UNL     1     107.869 130.094 121.999  1.00  0.00    -0.369 N 
ATOM     22  H   UNL     1     107.740 129.795 121.040  1.00  0.00     0.159 HD
ATOM     23  H   UNL     1     107.073 130.095 122.620  1.00  0.00     0.159 HD
ENDBRANCH   7  19
TORSDOF 1
ENDMDL
MODEL 10
REMARK VINA RESULT:    -8.307      2.534      4.972
REMARK INTER + INTRA:          -8.916
REMARK INTER:                  -8.809
REMARK INTRA:                  -0.106
REMARK UNBOUND:                -0.123
REMARK SMILES CN1C[C@H](C(N)=O)C=C2c3cccc4[nH]cc(c34)C[C@H]21
REMARK SMILES IDX 2 1 15 2 20 3 9 4 19 5 3 6 4 7 17 8 10 9 18 10 8 11 14 12
REMARK SMILES IDX 1 13 16 14 11 15 13 16 12 17 5 19 7 20 6 21
REMARK H PARENT 15 18 6 22 6 23
ROOT
ATOM      1  N   UNL     1     106.230 139.473 127.883  1.00  0.00    -0.298 NA
ATOM      2  N   UNL     1     110.328 136.653 124.504  1.00  0.00    -0.361 N 
ATOM      3  C   UNL     1     106.834 138.612 126.819  1.00  0.00     0.091 C 
ATOM      4  C   UNL     1     106.479 137.098 126.982  1.00  0.00    -0.026 C 
ATOM      5  C   UNL     1     108.389 138.868 126.740  1.00  0.00     0.061 C 
ATOM      6  C   UNL     1     104.843 139.047 128.166  1.00  0.00     0.102 C 
ATOM      7  C   UNL     1     104.811 137.627 128.754  1.00  0.00     0.115 C 
ATOM      8  C   UNL     1     109.049 137.870 125.851  1.00  0.00    -0.020 A 
ATOM      9  C   UNL     1     107.198 136.147 126.104  1.00  0.00    -0.011 A 
ATOM     10  C   UNL     1     108.421 136.628 125.618  1.00  0.00     0.010 A 
ATOM     11  C   UNL     1     105.582 136.663 127.888  1.00  0.00    -0.007 C 
ATOM     12  C   UNL     1     109.223 135.876 124.777  1.00  0.00     0.046 A 
ATOM     13  C   UNL     1     106.232 140.887 127.497  1.00  0.00     0.106 C 
ATOM     14  C   UNL     1     110.233 137.867 125.151  1.00  0.00     0.087 A 
ATOM     15  C   UNL     1     106.810 134.863 125.701  1.00  0.00     0.009 A 
ATOM     16  C   UNL     1     108.852 134.593 124.370  1.00  0.00     0.027 A 
ATOM     17  C   UNL     1     107.626 134.105 124.850  1.00  0.00     0.003 A 
ATOM     18  H   UNL     1     111.097 136.368 123.914  1.00  0.00     0.166 HD
ENDROOT
BRANCH   7  19
ATOM     19  C   UNL     1     103.361 137.158 128.902  1.00  0.00     0.225 C 
ATOM     20  O   UNL     1     102.873 136.191 128.327  1.00  0.00    -0.275 OA
ATOM     21  N   UNL     1     102.596 137.905 129.758  1.00  0.00    -0.369 N 
ATOM     22  H   UNL     1     101.619 137.657 129.847  1.00  0.00     0.159 HD
ATOM     23  H   UNL     1     102.916 138.779 130.152  1.00  0.00     0.159 HD
ENDBRANCH   7  19
TORSDOF 1
ENDMDL
MODEL 11
REMARK VINA RESULT:    -8.297      2.800      5.515
REMARK INTER + INTRA:          -8.905
REMARK INTER:                  -8.787
REMARK INTRA:                  -0.117
REMARK UNBOUND:                -0.123
REMARK SMILES CN1C[C@H](C(N)=O)C=C2c3cccc4[nH]cc(c34)C[C@H]21
REMARK SMILES IDX 2 1 15 2 20 3 9 4 19 5 3 6 4 7 17 8 10 9 18 10 8 11 14 12
REMARK SMILES IDX 1 13 16 14 11 15 13 16 12 17 5 19 7 20 6 21
REMARK H PARENT 15 18 6 22 6 23
ROOT
ATOM      1  N   UNL     1     109.012 139.279 127.500  1.00  0.00    -0.298 NA
ATOM      2  N   UNL     1     105.592 134.332 127.546  1.00  0.00    -0.361 N 
ATOM      3  C   UNL     1     108.609 137.838 127.454  1.00  0.00     0.091 C 
ATOM      4  C   UNL     1     108.905 137.164 126.074  1.00  0.00    -0.026 C 
ATOM      5  C   UNL     1     107.102 137.688 127.895  1.00  0.00     0.061 C 
ATOM      6  C   UNL     1     110.313 139.472 126.826  1.00  0.00     0.102 C 
ATOM      7  C   UNL     1     110.212 139.147 125.326  1.00  0.00     0.115 C 
ATOM      8  C   UNL     1     106.609 136.304 127.646  1.00  0.00    -0.020 A 
ATOM      9  C   UNL     1     108.352 135.806 125.864  1.00  0.00    -0.011 A 
ATOM     10  C   UNL     1     107.252 135.504 126.678  1.00  0.00     0.010 A 
ATOM     11  C   UNL     1     109.606 137.784 125.106  1.00  0.00    -0.007 C 
ATOM     12  C   UNL     1     106.614 134.276 126.622  1.00  0.00     0.046 A 
ATOM     13  C   UNL     1     109.105 139.768 128.879  1.00  0.00     0.106 C 
ATOM     14  C   UNL     1     105.580 135.559 128.174  1.00  0.00     0.087 A 
ATOM     15  C   UNL     1     108.791 134.809 124.985  1.00  0.00     0.009 A 
ATOM     16  C   UNL     1     107.036 133.274 125.746  1.00  0.00     0.027 A 
ATOM     17  C   UNL     1     108.141 133.568 124.931  1.00  0.00     0.003 A 
ATOM     18  H   UNL     1     104.945 133.578 127.730  1.00  0.00     0.166 HD
ENDROOT
BRANCH   7  19
ATOM     19  C   UNL     1     111.600 139.217 124.684  1.00  0.00     0.225 C 
ATOM     20  O   UNL     1     112.327 140.204 124.686  1.00  0.00    -0.275 OA
ATOM     21  N   UNL     1     112.016 138.060 124.080  1.00  0.00    -0.369 N 
ATOM     22  H   UNL     1     112.908 138.079 123.602  1.00  0.00     0.159 HD
ATOM     23  H   UNL     1     111.404 137.268 123.940  1.00  0.00     0.159 HD
ENDBRANCH   7  19
TORSDOF 1
ENDMDL
MODEL 12
REMARK VINA RESULT:    -8.234      5.687      8.752
REMARK INTER + INTRA:          -8.838
REMARK INTER:                  -8.730
REMARK INTRA:                  -0.107
REMARK UNBOUND:                -0.123
REMARK SMILES CN1C[C@H](C(N)=O)C=C2c3cccc4[nH]cc(c34)C[C@H]21
REMARK SMILES IDX 2 1 15 2 20 3 9 4 19 5 3 6 4 7 17 8 10 9 18 10 8 11 14 12
REMARK SMILES IDX 1 13 16 14 11 15 13 16 12 17 5 19 7 20 6 21
REMARK H PARENT 15 18 6 22 6 23
ROOT
ATOM      1  N   UNL     1     111.574 130.222 120.187  1.00  0.00    -0.298 NA
ATOM      2  N   UNL     1     107.672 131.991 124.408  1.00  0.00    -0.361 N 
ATOM      3  C   UNL     1     110.593 131.063 120.942  1.00  0.00     0.091 C 
ATOM      4  C   UNL     1     111.223 132.377 121.509  1.00  0.00    -0.026 C 
ATOM      5  C   UNL     1     109.888 130.196 122.054  1.00  0.00     0.061 C 
ATOM      6  C   UNL     1     112.440 131.072 119.343  1.00  0.00     0.102 C 
ATOM      7  C   UNL     1     113.311 132.001 120.206  1.00  0.00     0.115 C 
ATOM      8  C   UNL     1     109.075 131.053 122.964  1.00  0.00    -0.020 A 
ATOM      9  C   UNL     1     110.387 133.167 122.444  1.00  0.00    -0.011 A 
ATOM     10  C   UNL     1     109.386 132.424 123.083  1.00  0.00     0.010 A 
ATOM     11  C   UNL     1     112.470 132.773 121.191  1.00  0.00    -0.007 C 
ATOM     12  C   UNL     1     108.507 133.002 123.983  1.00  0.00     0.046 A 
ATOM     13  C   UNL     1     110.898 129.234 119.342  1.00  0.00     0.106 C 
ATOM     14  C   UNL     1     108.008 130.802 123.795  1.00  0.00     0.087 A 
ATOM     15  C   UNL     1     110.466 134.531 122.748  1.00  0.00     0.009 A 
ATOM     16  C   UNL     1     108.576 134.360 124.302  1.00  0.00     0.027 A 
ATOM     17  C   UNL     1     109.574 135.111 123.661  1.00  0.00     0.003 A 
ATOM     18  H   UNL     1     106.923 132.108 125.076  1.00  0.00     0.166 HD
ENDROOT
BRANCH   7  19
ATOM     19  C   UNL     1     114.089 132.967 119.308  1.00  0.00     0.225 C 
ATOM     20  O   UNL     1     114.984 133.713 119.688  1.00  0.00    -0.275 OA
ATOM     21  N   UNL     1     113.723 132.951 117.989  1.00  0.00    -0.369 N 
ATOM     22  H   UNL     1     114.180 133.610 117.371  1.00  0.00     0.159 HD
ATOM     23  H   UNL     1     112.911 132.452 117.655  1.00  0.00     0.159 HD
ENDBRANCH   7  19
TORSDOF 1
ENDMDL
MODEL 13
REMARK VINA RESULT:    -8.220      4.571      8.243
REMARK INTER + INTRA:          -8.823
REMARK INTER:                  -8.707
REMARK INTRA:                  -0.116
REMARK UNBOUND:                -0.123
REMARK SMILES CN1C[C@H](C(N)=O)C=C2c3cccc4[nH]cc(c34)C[C@H]21
REMARK SMILES IDX 2 1 15 2 20 3 9 4 19 5 3 6 4 7 17 8 10 9 18 10 8 11 14 12
REMARK SMILES IDX 1 13 16 14 11 15 13 16 12 17 5 19 7 20 6 21
REMARK H PARENT 15 18 6 22 6 23
ROOT
ATOM      1  N   UNL     1     107.681 132.237 124.420  1.00  0.00    -0.298 NA
ATOM      2  N   UNL     1     110.575 129.175 120.128  1.00  0.00    -0.361 N 
ATOM      3  C   UNL     1     108.792 131.655 123.604  1.00  0.00     0.091 C 
ATOM      4  C   UNL     1     109.657 132.741 122.885  1.00  0.00    -0.026 C 
ATOM      5  C   UNL     1     108.216 130.577 122.606  1.00  0.00     0.061 C 
ATOM      6  C   UNL     1     108.149 133.434 125.148  1.00  0.00     0.102 C 
ATOM      7  C   UNL     1     108.539 134.557 124.172  1.00  0.00     0.115 C 
ATOM      8  C   UNL     1     109.257 130.144 121.631  1.00  0.00    -0.020 A 
ATOM      9  C   UNL     1     110.644 132.257 121.892  1.00  0.00    -0.011 A 
ATOM     10  C   UNL     1     110.348 130.996 121.359  1.00  0.00     0.010 A 
ATOM     11  C   UNL     1     109.509 134.057 123.130  1.00  0.00    -0.007 C 
ATOM     12  C   UNL     1     111.166 130.386 120.423  1.00  0.00     0.046 A 
ATOM     13  C   UNL     1     107.153 131.264 125.381  1.00  0.00     0.106 C 
ATOM     14  C   UNL     1     109.414 129.018 120.856  1.00  0.00     0.087 A 
ATOM     15  C   UNL     1     111.813 132.884 121.443  1.00  0.00     0.009 A 
ATOM     16  C   UNL     1     112.331 131.001 119.961  1.00  0.00     0.027 A 
ATOM     17  C   UNL     1     112.637 132.263 120.494  1.00  0.00     0.003 A 
ATOM     18  H   UNL     1     110.944 128.504 119.469  1.00  0.00     0.166 HD
ENDROOT
BRANCH   7  19
ATOM     19  C   UNL     1     109.153 135.728 124.944  1.00  0.00     0.225 C 
ATOM     20  O   UNL     1     108.656 136.257 125.932  1.00  0.00    -0.275 OA
ATOM     21  N   UNL     1     110.352 136.176 124.456  1.00  0.00    -0.369 N 
ATOM     22  H   UNL     1     110.768 136.980 124.909  1.00  0.00     0.159 HD
ATOM     23  H   UNL     1     110.735 135.860 123.576  1.00  0.00     0.159 HD
ENDBRANCH   7  19
TORSDOF 1
ENDMDL
MODEL 14
REMARK VINA RESULT:    -8.188      2.817      5.566
REMARK INTER + INTRA:          -8.790
REMARK INTER:                  -8.679
REMARK INTRA:                  -0.111
REMARK UNBOUND:                -0.123
REMARK SMILES CN1C[C@H](C(N)=O)C=C2c3cccc4[nH]cc(c34)C[C@H]21
REMARK SMILES IDX 2 1 15 2 20 3 9 4 19 5 3 6 4 7 17 8 10 9 18 10 8 11 14 12
REMARK SMILES IDX 1 13 16 14 11 15 13 16 12 17 5 19 7 20 6 21
REMARK H PARENT 15 18 6 22 6 23
ROOT
ATOM      1  N   UNL     1     107.361 139.263 128.231  1.00  0.00    -0.298 NA
ATOM      2  N   UNL     1     106.559 133.688 126.120  1.00  0.00    -0.361 N 
ATOM      3  C   UNL     1     107.659 137.886 127.726  1.00  0.00     0.091 C 
ATOM      4  C   UNL     1     108.424 137.887 126.362  1.00  0.00    -0.026 C 
ATOM      5  C   UNL     1     106.333 137.032 127.681  1.00  0.00     0.061 C 
ATOM      6  C   UNL     1     108.519 140.154 128.014  1.00  0.00     0.102 C 
ATOM      7  C   UNL     1     108.795 140.344 126.513  1.00  0.00     0.115 C 
ATOM      8  C   UNL     1     106.556 135.738 126.976  1.00  0.00    -0.020 A 
ATOM      9  C   UNL     1     108.576 136.579 125.684  1.00  0.00    -0.011 A 
ATOM     10  C   UNL     1     107.623 135.624 126.060  1.00  0.00     0.010 A 
ATOM     11  C   UNL     1     108.906 139.016 125.808  1.00  0.00    -0.007 C 
ATOM     12  C   UNL     1     107.620 134.344 125.532  1.00  0.00     0.046 A 
ATOM     13  C   UNL     1     107.022 139.251 129.657  1.00  0.00     0.106 C 
ATOM     14  C   UNL     1     105.906 134.526 126.999  1.00  0.00     0.087 A 
ATOM     15  C   UNL     1     109.540 136.187 124.746  1.00  0.00     0.009 A 
ATOM     16  C   UNL     1     108.570 133.940 124.592  1.00  0.00     0.027 A 
ATOM     17  C   UNL     1     109.532 134.891 124.213  1.00  0.00     0.003 A 
ATOM     18  H   UNL     1     106.301 132.731 125.929  1.00  0.00     0.166 HD
ENDROOT
BRANCH   7  19
ATOM     19  C   UNL     1     110.082 141.151 126.319  1.00  0.00     0.225 C 
ATOM     20  O   UNL     1     110.509 141.992 127.102  1.00  0.00    -0.275 OA
ATOM     21  N   UNL     1     110.774 140.869 125.171  1.00  0.00    -0.369 N 
ATOM     22  H   UNL     1     111.605 141.415 124.981  1.00  0.00     0.159 HD
ATOM     23  H   UNL     1     110.398 140.283 124.439  1.00  0.00     0.159 HD
ENDBRANCH   7  19
TORSDOF 1
ENDMDL
MODEL 15
REMARK VINA RESULT:    -8.183      2.192      2.672
REMARK INTER + INTRA:          -8.784
REMARK INTER:                  -8.682
REMARK INTRA:                  -0.103
REMARK UNBOUND:                -0.123
REMARK SMILES CN1C[C@H](C(N)=O)C=C2c3cccc4[nH]cc(c34)C[C@H]21
REMARK SMILES IDX 2 1 15 2 20 3 9 4 19 5 3 6 4 7 17 8 10 9 18 10 8 11 14 12
REMARK SMILES IDX 1 13 16 14 11 15 13 16 12 17 5 19 7 20 6 21
REMARK H PARENT 15 18 6 22 6 23
ROOT
ATOM      1  N   UNL     1     104.893 138.361 128.327  1.00  0.00    -0.298 NA
ATOM      2  N   UNL     1     109.697 140.975 125.826  1.00  0.00    -0.361 N 
ATOM      3  C   UNL     1     105.985 138.674 127.353  1.00  0.00     0.091 C 
ATOM      4  C   UNL     1     107.002 137.500 127.175  1.00  0.00    -0.026 C 
ATOM      5  C   UNL     1     106.684 140.031 127.750  1.00  0.00     0.061 C 
ATOM      6  C   UNL     1     104.422 136.972 128.144  1.00  0.00     0.102 C 
ATOM      7  C   UNL     1     105.535 135.963 128.474  1.00  0.00     0.115 C 
ATOM      8  C   UNL     1     107.913 140.256 126.936  1.00  0.00    -0.020 A 
ATOM      9  C   UNL     1     108.227 137.793 126.395  1.00  0.00    -0.011 A 
ATOM     10  C   UNL     1     108.565 139.151 126.349  1.00  0.00     0.010 A 
ATOM     11  C   UNL     1     106.799 136.284 127.717  1.00  0.00    -0.007 C 
ATOM     12  C   UNL     1     109.675 139.607 125.658  1.00  0.00     0.046 A 
ATOM     13  C   UNL     1     103.760 139.279 128.180  1.00  0.00     0.106 C 
ATOM     14  C   UNL     1     108.631 141.381 126.601  1.00  0.00     0.087 A 
ATOM     15  C   UNL     1     109.059 136.902 125.707  1.00  0.00     0.009 A 
ATOM     16  C   UNL     1     110.518 138.731 124.971  1.00  0.00     0.027 A 
ATOM     17  C   UNL     1     110.183 137.368 125.010  1.00  0.00     0.003 A 
ATOM     18  H   UNL     1     110.399 141.589 125.436  1.00  0.00     0.166 HD
ENDROOT
BRANCH   7  19
ATOM     19  C   UNL     1     105.067 134.545 128.138  1.00  0.00     0.225 C 
ATOM     20  O   UNL     1     105.773 133.543 128.179  1.00  0.00    -0.275 OA
ATOM     21  N   UNL     1     103.749 134.441 127.778  1.00  0.00    -0.369 N 
ATOM     22  H   UNL     1     103.413 133.527 127.502  1.00  0.00     0.159 HD
ATOM     23  H   UNL     1     103.167 135.248 127.606  1.00  0.00     0.159 HD
ENDBRANCH   7  19
TORSDOF 1
ENDMDL
MODEL 16
REMARK VINA RESULT:    -8.013      2.638      5.773
REMARK INTER + INTRA:          -8.604
REMARK INTER:                  -8.499
REMARK INTRA:                  -0.105
REMARK UNBOUND:                -0.123
REMARK SMILES CN1C[C@H](C(N)=O)C=C2c3cccc4[nH]cc(c34)C[C@H]21
REMARK SMILES IDX 2 1 15 2 20 3 9 4 19 5 3 6 4 7 17 8 10 9 18 10 8 11 14 12
REMARK SMILES IDX 1 13 16 14 11 15 13 16 12 17 5 19 7 20 6 21
REMARK H PARENT 15 18 6 22 6 23
ROOT
ATOM      1  N   UNL     1     109.036 139.783 126.876  1.00  0.00    -0.298 NA
ATOM      2  N   UNL     1     109.995 134.837 123.591  1.00  0.00    -0.361 N 
ATOM      3  C   UNL     1     108.777 138.574 126.032  1.00  0.00     0.091 C 
ATOM      4  C   UNL     1     107.977 137.462 126.784  1.00  0.00    -0.026 C 
ATOM      5  C   UNL     1     110.134 138.045 125.425  1.00  0.00     0.061 C 
ATOM      6  C   UNL     1     107.838 140.121 127.673  1.00  0.00     0.102 C 
ATOM      7  C   UNL     1     107.514 139.006 128.683  1.00  0.00     0.115 C 
ATOM      8  C   UNL     1     109.942 136.721 124.767  1.00  0.00    -0.020 A 
ATOM      9  C   UNL     1     107.856 136.152 126.104  1.00  0.00    -0.011 A 
ATOM     10  C   UNL     1     108.856 135.907 125.153  1.00  0.00     0.010 A 
ATOM     11  C   UNL     1     107.436 137.663 128.002  1.00  0.00    -0.007 C 
ATOM     12  C   UNL     1     108.894 134.736 124.415  1.00  0.00     0.046 A 
ATOM     13  C   UNL     1     109.414 140.940 126.059  1.00  0.00     0.106 C 
ATOM     14  C   UNL     1     110.640 136.039 123.797  1.00  0.00     0.087 A 
ATOM     15  C   UNL     1     106.884 135.160 126.281  1.00  0.00     0.009 A 
ATOM     16  C   UNL     1     107.935 133.735 124.584  1.00  0.00     0.027 A 
ATOM     17  C   UNL     1     106.928 133.976 125.533  1.00  0.00     0.003 A 
ATOM     18  H   UNL     1     110.286 134.127 122.934  1.00  0.00     0.166 HD
ENDROOT
BRANCH   7  19
ATOM     19  C   UNL     1     106.193 139.314 129.391  1.00  0.00     0.225 C 
ATOM     20  O   UNL     1     105.639 140.408 129.401  1.00  0.00    -0.275 OA
ATOM     21  N   UNL     1     105.625 138.252 130.043  1.00  0.00    -0.369 N 
ATOM     22  H   UNL     1     104.775 138.426 130.565  1.00  0.00     0.159 HD
ATOM     23  H   UNL     1     106.105 137.372 130.171  1.00  0.00     0.159 HD
ENDBRANCH   7  19
TORSDOF 1
ENDMDL
MODEL 17
REMARK VINA RESULT:    -7.943      5.714      8.777
REMARK INTER + INTRA:          -8.530
REMARK INTER:                  -8.418
REMARK INTRA:                  -0.112
REMARK UNBOUND:                -0.123
REMARK SMILES CN1C[C@H](C(N)=O)C=C2c3cccc4[nH]cc(c34)C[C@H]21
REMARK SMILES IDX 2 1 15 2 20 3 9 4 19 5 3 6 4 7 17 8 10 9 18 10 8 11 14 12
REMARK SMILES IDX 1 13 16 14 11 15 13 16 12 17 5 19 7 20 6 21
REMARK H PARENT 15 18 6 22 6 23
ROOT
ATOM      1  N   UNL     1     112.685 132.644 120.197  1.00  0.00    -0.298 NA
ATOM      2  N   UNL     1     108.725 134.250 124.429  1.00  0.00    -0.361 N 
ATOM      3  C   UNL     1     111.815 132.587 121.414  1.00  0.00     0.091 C 
ATOM      4  C   UNL     1     110.699 131.496 121.318  1.00  0.00    -0.026 C 
ATOM      5  C   UNL     1     111.240 134.022 121.728  1.00  0.00     0.061 C 
ATOM      6  C   UNL     1     112.999 131.279 119.724  1.00  0.00     0.102 C 
ATOM      7  C   UNL     1     111.728 130.551 119.257  1.00  0.00     0.115 C 
ATOM      8  C   UNL     1     110.199 133.957 122.793  1.00  0.00    -0.020 A 
ATOM      9  C   UNL     1     109.665 131.507 122.378  1.00  0.00    -0.011 A 
ATOM     10  C   UNL     1     109.515 132.743 123.019  1.00  0.00     0.010 A 
ATOM     11  C   UNL     1     110.655 130.598 120.315  1.00  0.00    -0.007 C 
ATOM     12  C   UNL     1     108.600 132.933 124.041  1.00  0.00     0.046 A 
ATOM     13  C   UNL     1     113.935 133.363 120.461  1.00  0.00     0.106 C 
ATOM     14  C   UNL     1     109.694 134.882 123.677  1.00  0.00     0.087 A 
ATOM     15  C   UNL     1     108.849 130.456 122.815  1.00  0.00     0.009 A 
ATOM     16  C   UNL     1     107.775 131.897 124.484  1.00  0.00     0.027 A 
ATOM     17  C   UNL     1     107.923 130.653 123.849  1.00  0.00     0.003 A 
ATOM     18  H   UNL     1     108.180 134.686 125.159  1.00  0.00     0.166 HD
ENDROOT
BRANCH   7  19
ATOM     19  C   UNL     1     112.059 129.097 118.909  1.00  0.00     0.225 C 
ATOM     20  O   UNL     1     113.115 128.715 118.416  1.00  0.00    -0.275 OA
ATOM     21  N   UNL     1     111.071 128.193 119.197  1.00  0.00    -0.369 N 
ATOM     22  H   UNL     1     111.232 127.228 118.938  1.00  0.00     0.159 HD
ATOM     23  H   UNL     1     110.143 128.474 119.482  1.00  0.00     0.159 HD
ENDBRANCH   7  19
TORSDOF 1
ENDMDL
MODEL 18
REMARK VINA RESULT:    -7.928      3.008      5.593
REMARK INTER + INTRA:          -8.514
REMARK INTER:                  -8.407
REMARK INTRA:                  -0.107
REMARK UNBOUND:                -0.123
REMARK SMILES CN1C[C@H](C(N)=O)C=C2c3cccc4[nH]cc(c34)C[C@H]21
REMARK SMILES IDX 2 1 15 2 20 3 9 4 19 5 3 6 4 7 17 8 10 9 18 10 8 11 14 12
REMARK SMILES IDX 1 13 16 14 11 15 13 16 12 17 5 19 7 20 6 21
REMARK H PARENT 15 18 6 22 6 23
ROOT
ATOM      1  N   UNL     1     109.340 136.666 125.790  1.00  0.00    -0.298 NA
ATOM      2  N   UNL     1     104.670 136.064 129.531  1.00  0.00    -0.361 N 
ATOM      3  C   UNL     1     108.022 136.908 126.455  1.00  0.00     0.091 C 
ATOM      4  C   UNL     1     107.953 138.284 127.195  1.00  0.00    -0.026 C 
ATOM      5  C   UNL     1     107.664 135.692 127.394  1.00  0.00     0.061 C 
ATOM      6  C   UNL     1     109.823 137.902 125.138  1.00  0.00     0.102 C 
ATOM      7  C   UNL     1     110.110 138.999 126.177  1.00  0.00     0.115 C 
ATOM      8  C   UNL     1     106.474 136.001 128.237  1.00  0.00    -0.020 A 
ATOM      9  C   UNL     1     106.770 138.519 128.055  1.00  0.00    -0.011 A 
ATOM     10  C   UNL     1     106.139 137.348 128.494  1.00  0.00     0.010 A 
ATOM     11  C   UNL     1     108.924 139.210 127.084  1.00  0.00    -0.007 C 
ATOM     12  C   UNL     1     105.013 137.379 129.299  1.00  0.00     0.046 A 
ATOM     13  C   UNL     1     109.252 135.596 124.792  1.00  0.00     0.106 C 
ATOM     14  C   UNL     1     105.551 135.218 128.890  1.00  0.00     0.087 A 
ATOM     15  C   UNL     1     106.212 139.738 128.461  1.00  0.00     0.009 A 
ATOM     16  C   UNL     1     104.448 138.586 129.717  1.00  0.00     0.027 A 
ATOM     17  C   UNL     1     105.073 139.764 129.277  1.00  0.00     0.003 A 
ATOM     18  H   UNL     1     103.884 135.768 130.093  1.00  0.00     0.166 HD
ENDROOT
BRANCH   7  19
ATOM     19  C   UNL     1     110.468 140.307 125.466  1.00  0.00     0.225 C 
ATOM     20  O   UNL     1     109.748 141.298 125.412  1.00  0.00    -0.275 OA
ATOM     21  N   UNL     1     111.700 140.321 124.868  1.00  0.00    -0.369 N 
ATOM     22  H   UNL     1     111.955 141.150 124.346  1.00  0.00     0.159 HD
ATOM     23  H   UNL     1     112.270 139.492 124.775  1.00  0.00     0.159 HD
ENDBRANCH   7  19
TORSDOF 1
ENDMDL
MODEL 19
REMARK VINA RESULT:    -7.790      2.687      5.626
REMARK INTER + INTRA:          -8.368
REMARK INTER:                  -8.263
REMARK INTRA:                  -0.106
REMARK UNBOUND:                -0.123
REMARK SMILES CN1C[C@H](C(N)=O)C=C2c3cccc4[nH]cc(c34)C[C@H]21
REMARK SMILES IDX 2 1 15 2 20 3 9 4 19 5 3 6 4 7 17 8 10 9 18 10 8 11 14 12
REMARK SMILES IDX 1 13 16 14 11 15 13 16 12 17 5 19 7 20 6 21
REMARK H PARENT 15 18 6 22 6 23
ROOT
ATOM      1  N   UNL     1     106.442 139.565 127.200  1.00  0.00    -0.298 NA
ATOM      2  N   UNL     1     103.967 134.131 127.922  1.00  0.00    -0.361 N 
ATOM      3  C   UNL     1     106.271 138.129 127.587  1.00  0.00     0.091 C 
ATOM      4  C   UNL     1     107.241 137.170 126.823  1.00  0.00    -0.026 C 
ATOM      5  C   UNL     1     104.758 137.710 127.439  1.00  0.00     0.061 C 
ATOM      6  C   UNL     1     107.876 139.893 127.058  1.00  0.00     0.102 C 
ATOM      7  C   UNL     1     108.512 139.103 125.901  1.00  0.00     0.115 C 
ATOM      8  C   UNL     1     104.594 136.238 127.601  1.00  0.00    -0.020 A 
ATOM      9  C   UNL     1     107.003 135.716 126.984  1.00  0.00    -0.011 A 
ATOM     10  C   UNL     1     105.695 135.389 127.362  1.00  0.00     0.010 A 
ATOM     11  C   UNL     1     108.234 137.627 126.036  1.00  0.00    -0.007 C 
ATOM     12  C   UNL     1     105.297 134.078 127.566  1.00  0.00     0.046 A 
ATOM     13  C   UNL     1     105.836 140.464 128.186  1.00  0.00     0.106 C 
ATOM     14  C   UNL     1     103.529 135.439 127.947  1.00  0.00     0.087 A 
ATOM     15  C   UNL     1     107.907 134.659 126.821  1.00  0.00     0.009 A 
ATOM     16  C   UNL     1     106.185 133.012 127.402  1.00  0.00     0.027 A 
ATOM     17  C   UNL     1     107.499 133.334 127.027  1.00  0.00     0.003 A 
ATOM     18  H   UNL     1     103.397 133.324 128.133  1.00  0.00     0.166 HD
ENDROOT
BRANCH   7  19
ATOM     19  C   UNL     1     110.022 139.353 125.869  1.00  0.00     0.225 C 
ATOM     20  O   UNL     1     110.593 140.282 126.429  1.00  0.00    -0.275 OA
ATOM     21  N   UNL     1     110.744 138.436 125.152  1.00  0.00    -0.369 N 
ATOM     22  H   UNL     1     111.740 138.593 125.066  1.00  0.00     0.159 HD
ATOM     23  H   UNL     1     110.309 137.734 124.571  1.00  0.00     0.159 HD
ENDBRANCH   7  19
TORSDOF 1
ENDMDL
MODEL 20
REMARK VINA RESULT:    -7.398      2.084      4.502
REMARK INTER + INTRA:          -7.953
REMARK INTER:                  -7.830
REMARK INTRA:                  -0.123
REMARK UNBOUND:                -0.123
REMARK SMILES CN1C[C@H](C(N)=O)C=C2c3cccc4[nH]cc(c34)C[C@H]21
REMARK SMILES IDX 2 1 15 2 20 3 9 4 19 5 3 6 4 7 17 8 10 9 18 10 8 11 14 12
REMARK SMILES IDX 1 13 16 14 11 15 13 16 12 17 5 19 7 20 6 21
REMARK H PARENT 15 18 6 22 6 23
ROOT
ATOM      1  N   UNL     1     108.563 137.217 125.505  1.00  0.00    -0.298 NA
ATOM      2  N   UNL     1     104.298 139.652 128.977  1.00  0.00    -0.361 N 
ATOM      3  C   UNL     1     107.567 137.391 126.609  1.00  0.00     0.091 C 
ATOM      4  C   UNL     1     106.395 136.359 126.544  1.00  0.00    -0.026 C 
ATOM      5  C   UNL     1     107.063 138.885 126.645  1.00  0.00     0.061 C 
ATOM      6  C   UNL     1     108.830 135.782 125.274  1.00  0.00     0.102 C 
ATOM      7  C   UNL     1     107.568 135.059 124.773  1.00  0.00     0.115 C 
ATOM      8  C   UNL     1     105.913 139.037 127.581  1.00  0.00    -0.020 A 
ATOM      9  C   UNL     1     105.257 136.584 127.466  1.00  0.00    -0.011 A 
ATOM     10  C   UNL     1     105.127 137.910 127.900  1.00  0.00     0.010 A 
ATOM     11  C   UNL     1     106.394 135.323 125.683  1.00  0.00    -0.007 C 
ATOM     12  C   UNL     1     104.124 138.300 128.771  1.00  0.00     0.046 A 
ATOM     13  C   UNL     1     109.825 137.900 125.805  1.00  0.00     0.106 C 
ATOM     14  C   UNL     1     105.383 140.111 128.259  1.00  0.00     0.087 A 
ATOM     15  C   UNL     1     104.329 135.656 127.953  1.00  0.00     0.009 A 
ATOM     16  C   UNL     1     103.187 137.388 129.261  1.00  0.00     0.027 A 
ATOM     17  C   UNL     1     103.315 136.056 128.834  1.00  0.00     0.003 A 
ATOM     18  H   UNL     1     103.711 140.222 129.569  1.00  0.00     0.166 HD
ENDROOT
BRANCH   7  19
ATOM     19  C   UNL     1     107.833 133.554 124.680  1.00  0.00     0.225 C 
ATOM     20  O   UNL     1     108.102 132.951 123.647  1.00  0.00    -0.275 OA
ATOM     21  N   UNL     1     107.757 132.879 125.869  1.00  0.00    -0.369 N 
ATOM     22  H   UNL     1     107.878 131.874 125.842  1.00  0.00     0.159 HD
ATOM     23  H   UNL     1     107.414 133.307 126.717  1.00  0.00     0.159 HD
ENDBRANCH   7  19
TORSDOF 1
ENDMDL
