MODEL 1
REMARK VINA RESULT:    -8.656      0.000      0.000
REMARK INTER + INTRA:          -9.268
REMARK INTER:                  -9.162
REMARK INTRA:                  -0.106
REMARK UNBOUND:                -0.106
REMARK SMILES CN1C[C@H](C(N)=O)C=C2c3cccc4[nH]cc(c34)C[C@H]21
REMARK SMILES IDX 2 1 15 2 20 3 9 4 19 5 3 6 4 7 17 8 10 9 18 10 8 11 14 12
REMARK SMILES IDX 1 13 16 14 11 15 13 16 12 17 5 19 7 20 6 21
REMARK H PARENT 15 18 6 22 6 23
ROOT
ATOM      1  N   UNL     1      92.122 106.942  73.609  1.00  0.00    -0.298 NA
ATOM      2  N   UNL     1      88.861 105.956  78.565  1.00  0.00    -0.361 N 
ATOM      3  C   UNL     1      91.152 107.154  74.728  1.00  0.00     0.091 C 
ATOM      4  C   UNL     1      91.572 108.312  75.691  1.00  0.00    -0.026 C 
ATOM      5  C   UNL     1      90.899 105.793  75.485  1.00  0.00     0.061 C 
ATOM      6  C   UNL     1      92.587 108.239  73.075  1.00  0.00     0.102 C 
ATOM      7  C   UNL     1      93.383 109.019  74.135  1.00  0.00     0.115 C 
ATOM      8  C   UNL     1      90.116 106.015  76.733  1.00  0.00    -0.020 A 
ATOM      9  C   UNL     1      90.788 108.458  76.939  1.00  0.00    -0.011 A 
ATOM     10  C   UNL     1      90.130 107.289  77.342  1.00  0.00     0.010 A 
ATOM     11  C   UNL     1      92.608 109.130  75.424  1.00  0.00    -0.007 C 
ATOM     12  C   UNL     1      89.345 107.244  78.481  1.00  0.00     0.046 A 
ATOM     13  C   UNL     1      91.528 106.157  72.522  1.00  0.00     0.106 C 
ATOM     14  C   UNL     1      89.324 105.200  77.509  1.00  0.00     0.087 A 
ATOM     15  C   UNL     1      90.619 109.595  77.738  1.00  0.00     0.009 A 
ATOM     16  C   UNL     1      89.171 108.369  79.291  1.00  0.00     0.027 A 
ATOM     17  C   UNL     1      89.824 109.545  78.892  1.00  0.00     0.003 A 
ATOM     18  H   UNL     1      88.257 105.618  79.300  1.00  0.00     0.166 HD
ENDROOT
BRANCH   7  19
ATOM     19  C   UNL     1      93.727 110.414  73.605  1.00  0.00     0.225 C 
ATOM     20  O   UNL     1      93.722 110.737  72.423  1.00  0.00    -0.275 OA
ATOM     21  N   UNL     1      94.050 111.334  74.567  1.00  0.00    -0.369 N 
ATOM     22  H   UNL     1      94.330 112.255  74.254  1.00  0.00     0.159 HD
ATOM     23  H   UNL     1      94.192 111.083  75.535  1.00  0.00     0.159 HD
ENDBRANCH   7  19
TORSDOF 1
ENDMDL
MODEL 2
REMARK VINA RESULT:    -8.416      4.129      6.910
REMARK INTER + INTRA:          -9.014
REMARK INTER:                  -8.917
REMARK INTRA:                  -0.097
REMARK UNBOUND:                -0.106
REMARK SMILES CN1C[C@H](C(N)=O)C=C2c3cccc4[nH]cc(c34)C[C@H]21
REMARK SMILES IDX 2 1 15 2 20 3 9 4 19 5 3 6 4 7 17 8 10 9 18 10 8 11 14 12
REMARK SMILES IDX 1 13 16 14 11 15 13 16 12 17 5 19 7 20 6 21
REMARK H PARENT 15 18 6 22 6 23
ROOT
ATOM      1  N   UNL     1      89.348 109.657  81.977  1.00  0.00    -0.298 NA
ATOM      2  N   UNL     1      91.263 107.661  76.636  1.00  0.00    -0.361 N 
ATOM      3  C   UNL     1      90.093 109.579  80.681  1.00  0.00     0.091 C 
ATOM      4  C   UNL     1      89.729 110.736  79.694  1.00  0.00    -0.026 C 
ATOM      5  C   UNL     1      89.905 108.150  80.040  1.00  0.00     0.061 C 
ATOM      6  C   UNL     1      89.276 111.057  82.445  1.00  0.00     0.102 C 
ATOM      7  C   UNL     1      88.455 111.922  81.474  1.00  0.00     0.115 C 
ATOM      8  C   UNL     1      90.446 108.112  78.652  1.00  0.00    -0.020 A 
ATOM      9  C   UNL     1      90.256 110.624  78.314  1.00  0.00    -0.011 A 
ATOM     10  C   UNL     1      90.567 109.316  77.924  1.00  0.00     0.010 A 
ATOM     11  C   UNL     1      88.958 111.777  80.060  1.00  0.00    -0.007 C 
ATOM     12  C   UNL     1      91.078 109.026  76.670  1.00  0.00     0.046 A 
ATOM     13  C   UNL     1      89.980 108.833  83.012  1.00  0.00     0.106 C 
ATOM     14  C   UNL     1      90.881 107.095  77.835  1.00  0.00     0.087 A 
ATOM     15  C   UNL     1      90.486 111.643  77.381  1.00  0.00     0.009 A 
ATOM     16  C   UNL     1      91.308 110.030  75.727  1.00  0.00     0.027 A 
ATOM     17  C   UNL     1      91.002 111.345  76.112  1.00  0.00     0.003 A 
ATOM     18  H   UNL     1      91.624 107.151  75.842  1.00  0.00     0.166 HD
ENDROOT
BRANCH   7  19
ATOM     19  C   UNL     1      88.517 113.390  81.907  1.00  0.00     0.225 C 
ATOM     20  O   UNL     1      89.530 113.971  82.279  1.00  0.00    -0.275 OA
ATOM     21  N   UNL     1      87.324 114.061  81.848  1.00  0.00    -0.369 N 
ATOM     22  H   UNL     1      87.313 115.020  82.171  1.00  0.00     0.159 HD
ATOM     23  H   UNL     1      86.445 113.594  81.672  1.00  0.00     0.159 HD
ENDBRANCH   7  19
TORSDOF 1
ENDMDL
MODEL 3
REMARK VINA RESULT:    -8.093      1.909      3.801
REMARK INTER + INTRA:          -8.672
REMARK INTER:                  -8.557
REMARK INTRA:                  -0.115
REMARK UNBOUND:                -0.106
REMARK SMILES CN1C[C@H](C(N)=O)C=C2c3cccc4[nH]cc(c34)C[C@H]21
REMARK SMILES IDX 2 1 15 2 20 3 9 4 19 5 3 6 4 7 17 8 10 9 18 10 8 11 14 12
REMARK SMILES IDX 1 13 16 14 11 15 13 16 12 17 5 19 7 20 6 21
REMARK H PARENT 15 18 6 22 6 23
ROOT
ATOM      1  N   UNL     1      92.309 108.527  73.867  1.00  0.00    -0.298 NA
ATOM      2  N   UNL     1      89.579 109.138  79.191  1.00  0.00    -0.361 N 
ATOM      3  C   UNL     1      91.793 108.211  75.236  1.00  0.00     0.091 C 
ATOM      4  C   UNL     1      90.713 107.080  75.236  1.00  0.00    -0.026 C 
ATOM      5  C   UNL     1      91.294 109.531  75.939  1.00  0.00     0.061 C 
ATOM      6  C   UNL     1      92.514 107.285  73.093  1.00  0.00     0.102 C 
ATOM      7  C   UNL     1      91.178 106.563  72.845  1.00  0.00     0.115 C 
ATOM      8  C   UNL     1      90.573 109.221  77.206  1.00  0.00    -0.020 A 
ATOM      9  C   UNL     1      89.996 106.845  76.511  1.00  0.00    -0.011 A 
ATOM     10  C   UNL     1      89.997 107.944  77.379  1.00  0.00     0.010 A 
ATOM     11  C   UNL     1      90.422 106.362  74.134  1.00  0.00    -0.007 C 
ATOM     12  C   UNL     1      89.381 107.900  78.618  1.00  0.00     0.046 A 
ATOM     13  C   UNL     1      93.570 109.273  73.926  1.00  0.00     0.106 C 
ATOM     14  C   UNL     1      90.302 109.949  78.341  1.00  0.00     0.087 A 
ATOM     15  C   UNL     1      89.346 105.684  76.947  1.00  0.00     0.009 A 
ATOM     16  C   UNL     1      88.723 106.752  79.065  1.00  0.00     0.027 A 
ATOM     17  C   UNL     1      88.722 105.645  78.202  1.00  0.00     0.003 A 
ATOM     18  H   UNL     1      89.238 109.409  80.102  1.00  0.00     0.166 HD
ENDROOT
BRANCH   7  19
ATOM     19  C   UNL     1      91.435 105.213  72.170  1.00  0.00     0.225 C 
ATOM     20  O   UNL     1      92.221 105.026  71.248  1.00  0.00    -0.275 OA
ATOM     21  N   UNL     1      90.710 104.167  72.675  1.00  0.00    -0.369 N 
ATOM     22  H   UNL     1      90.814 103.267  72.224  1.00  0.00     0.159 HD
ATOM     23  H   UNL     1      89.961 104.295  73.341  1.00  0.00     0.159 HD
ENDBRANCH   7  19
TORSDOF 1
ENDMDL
MODEL 4
REMARK VINA RESULT:    -8.069      3.836      6.300
REMARK INTER + INTRA:          -8.647
REMARK INTER:                  -8.552
REMARK INTRA:                  -0.095
REMARK UNBOUND:                -0.106
REMARK SMILES CN1C[C@H](C(N)=O)C=C2c3cccc4[nH]cc(c34)C[C@H]21
REMARK SMILES IDX 2 1 15 2 20 3 9 4 19 5 3 6 4 7 17 8 10 9 18 10 8 11 14 12
REMARK SMILES IDX 1 13 16 14 11 15 13 16 12 17 5 19 7 20 6 21
REMARK H PARENT 15 18 6 22 6 23
ROOT
ATOM      1  N   UNL     1      89.853 110.628  78.080  1.00  0.00    -0.298 NA
ATOM      2  N   UNL     1      88.477 111.797  83.817  1.00  0.00    -0.361 N 
ATOM      3  C   UNL     1      89.959 110.710  79.571  1.00  0.00     0.091 C 
ATOM      4  C   UNL     1      89.998 109.307  80.260  1.00  0.00    -0.026 C 
ATOM      5  C   UNL     1      88.815 111.637  80.139  1.00  0.00     0.061 C 
ATOM      6  C   UNL     1      90.724 109.553  77.560  1.00  0.00     0.102 C 
ATOM      7  C   UNL     1      90.256 108.175  78.058  1.00  0.00     0.115 C 
ATOM      8  C   UNL     1      88.757 111.561  81.626  1.00  0.00    -0.020 A 
ATOM      9  C   UNL     1      89.891 109.288  81.737  1.00  0.00    -0.011 A 
ATOM     10  C   UNL     1      89.279 110.425  82.282  1.00  0.00     0.010 A 
ATOM     11  C   UNL     1      90.101 108.163  79.558  1.00  0.00    -0.007 C 
ATOM     12  C   UNL     1      89.102 110.580  83.646  1.00  0.00     0.046 A 
ATOM     13  C   UNL     1      90.219 111.896  77.443  1.00  0.00     0.106 C 
ATOM     14  C   UNL     1      88.262 112.401  82.596  1.00  0.00     0.087 A 
ATOM     15  C   UNL     1      90.326 108.305  82.633  1.00  0.00     0.009 A 
ATOM     16  C   UNL     1      89.526 109.605  84.552  1.00  0.00     0.027 A 
ATOM     17  C   UNL     1      90.144 108.465  84.014  1.00  0.00     0.003 A 
ATOM     18  H   UNL     1      88.214 112.185  84.712  1.00  0.00     0.166 HD
ENDROOT
BRANCH   7  19
ATOM     19  C   UNL     1      91.256 107.099  77.624  1.00  0.00     0.225 C 
ATOM     20  O   UNL     1      92.457 107.283  77.454  1.00  0.00    -0.275 OA
ATOM     21  N   UNL     1      90.719 105.854  77.431  1.00  0.00    -0.369 N 
ATOM     22  H   UNL     1      91.338 105.126  77.097  1.00  0.00     0.159 HD
ATOM     23  H   UNL     1      89.723 105.685  77.433  1.00  0.00     0.159 HD
ENDBRANCH   7  19
TORSDOF 1
ENDMDL
MODEL 5
REMARK VINA RESULT:    -8.018      3.280      4.710
REMARK INTER + INTRA:          -8.593
REMARK INTER:                  -8.479
REMARK INTRA:                  -0.114
REMARK UNBOUND:                -0.106
REMARK SMILES CN1C[C@H](C(N)=O)C=C2c3cccc4[nH]cc(c34)C[C@H]21
REMARK SMILES IDX 2 1 15 2 20 3 9 4 19 5 3 6 4 7 17 8 10 9 18 10 8 11 14 12
REMARK SMILES IDX 1 13 16 14 11 15 13 16 12 17 5 19 7 20 6 21
REMARK H PARENT 15 18 6 22 6 23
ROOT
ATOM      1  N   UNL     1      91.002 108.835  77.379  1.00  0.00    -0.298 NA
ATOM      2  N   UNL     1      90.110 108.369  83.309  1.00  0.00    -0.361 N 
ATOM      3  C   UNL     1      90.355 108.944  78.724  1.00  0.00     0.091 C 
ATOM      4  C   UNL     1      90.161 110.423  79.193  1.00  0.00    -0.026 C 
ATOM      5  C   UNL     1      91.148 108.071  79.772  1.00  0.00     0.061 C 
ATOM      6  C   UNL     1      90.455 109.855  76.460  1.00  0.00     0.102 C 
ATOM      7  C   UNL     1      90.800 111.274  76.941  1.00  0.00     0.115 C 
ATOM      8  C   UNL     1      90.665 108.333  81.158  1.00  0.00    -0.020 A 
ATOM      9  C   UNL     1      89.724 110.626  80.593  1.00  0.00    -0.011 A 
ATOM     10  C   UNL     1      90.018 109.554  81.446  1.00  0.00     0.010 A 
ATOM     11  C   UNL     1      90.398 111.471  78.382  1.00  0.00    -0.007 C 
ATOM     12  C   UNL     1      89.674 109.568  82.787  1.00  0.00     0.046 A 
ATOM     13  C   UNL     1      90.809 107.505  76.795  1.00  0.00     0.106 C 
ATOM     14  C   UNL     1      90.714 107.611  82.328  1.00  0.00     0.087 A 
ATOM     15  C   UNL     1      89.059 111.724  81.151  1.00  0.00     0.009 A 
ATOM     16  C   UNL     1      89.016 110.658  83.360  1.00  0.00     0.027 A 
ATOM     17  C   UNL     1      88.714 111.735  82.510  1.00  0.00     0.003 A 
ATOM     18  H   UNL     1      90.003 108.091  84.274  1.00  0.00     0.166 HD
ENDROOT
BRANCH   7  19
ATOM     19  C   UNL     1      90.102 112.308  76.054  1.00  0.00     0.225 C 
ATOM     20  O   UNL     1      90.011 112.241  74.833  1.00  0.00    -0.275 OA
ATOM     21  N   UNL     1      89.548 113.366  76.725  1.00  0.00    -0.369 N 
ATOM     22  H   UNL     1      89.119 114.096  76.171  1.00  0.00     0.159 HD
ATOM     23  H   UNL     1      89.707 113.530  77.709  1.00  0.00     0.159 HD
ENDBRANCH   7  19
TORSDOF 1
ENDMDL
MODEL 6
REMARK VINA RESULT:    -7.905      2.549      5.466
REMARK INTER + INTRA:          -8.474
REMARK INTER:                  -8.370
REMARK INTRA:                  -0.104
REMARK UNBOUND:                -0.106
REMARK SMILES CN1C[C@H](C(N)=O)C=C2c3cccc4[nH]cc(c34)C[C@H]21
REMARK SMILES IDX 2 1 15 2 20 3 9 4 19 5 3 6 4 7 17 8 10 9 18 10 8 11 14 12
REMARK SMILES IDX 1 13 16 14 11 15 13 16 12 17 5 19 7 20 6 21
REMARK H PARENT 15 18 6 22 6 23
ROOT
ATOM      1  N   UNL     1      91.530 106.030  75.498  1.00  0.00    -0.298 NA
ATOM      2  N   UNL     1      93.898 111.373  74.076  1.00  0.00    -0.361 N 
ATOM      3  C   UNL     1      92.101 107.406  75.640  1.00  0.00     0.091 C 
ATOM      4  C   UNL     1      91.077 108.437  76.218  1.00  0.00    -0.026 C 
ATOM      5  C   UNL     1      92.726 107.871  74.268  1.00  0.00     0.061 C 
ATOM      6  C   UNL     1      90.698 105.693  76.672  1.00  0.00     0.102 C 
ATOM      7  C   UNL     1      89.470 106.615  76.760  1.00  0.00     0.115 C 
ATOM      8  C   UNL     1      93.100 109.313  74.314  1.00  0.00    -0.020 A 
ATOM      9  C   UNL     1      91.483 109.861  76.197  1.00  0.00    -0.011 A 
ATOM     10  C   UNL     1      92.463 110.164  75.243  1.00  0.00     0.010 A 
ATOM     11  C   UNL     1      89.873 108.066  76.694  1.00  0.00    -0.007 C 
ATOM     12  C   UNL     1      92.966 111.445  75.090  1.00  0.00     0.046 A 
ATOM     13  C   UNL     1      92.584 105.023  75.348  1.00  0.00     0.106 C 
ATOM     14  C   UNL     1      93.987 110.083  73.597  1.00  0.00     0.087 A 
ATOM     15  C   UNL     1      91.028 110.912  77.003  1.00  0.00     0.009 A 
ATOM     16  C   UNL     1      92.519 112.504  75.882  1.00  0.00     0.027 A 
ATOM     17  C   UNL     1      91.539 112.207  76.843  1.00  0.00     0.003 A 
ATOM     18  H   UNL     1      94.434 112.158  73.734  1.00  0.00     0.166 HD
ENDROOT
BRANCH   7  19
ATOM     19  C   UNL     1      88.706 106.340  78.059  1.00  0.00     0.225 C 
ATOM     20  O   UNL     1      88.036 107.166  78.669  1.00  0.00    -0.275 OA
ATOM     21  N   UNL     1      88.807 105.058  78.529  1.00  0.00    -0.369 N 
ATOM     22  H   UNL     1      88.357 104.848  79.411  1.00  0.00     0.159 HD
ATOM     23  H   UNL     1      89.447 104.382  78.135  1.00  0.00     0.159 HD
ENDBRANCH   7  19
TORSDOF 1
ENDMDL
MODEL 7
REMARK VINA RESULT:    -7.793      2.453      4.407
REMARK INTER + INTRA:          -8.355
REMARK INTER:                  -8.233
REMARK INTRA:                  -0.123
REMARK UNBOUND:                -0.106
REMARK SMILES CN1C[C@H](C(N)=O)C=C2c3cccc4[nH]cc(c34)C[C@H]21
REMARK SMILES IDX 2 1 15 2 20 3 9 4 19 5 3 6 4 7 17 8 10 9 18 10 8 11 14 12
REMARK SMILES IDX 1 13 16 14 11 15 13 16 12 17 5 19 7 20 6 21
REMARK H PARENT 15 18 6 22 6 23
ROOT
ATOM      1  N   UNL     1      90.014 105.774  77.221  1.00  0.00    -0.298 NA
ATOM      2  N   UNL     1      90.114 111.497  79.071  1.00  0.00    -0.361 N 
ATOM      3  C   UNL     1      89.887 107.266  77.212  1.00  0.00     0.091 C 
ATOM      4  C   UNL     1      90.891 107.959  76.234  1.00  0.00    -0.026 C 
ATOM      5  C   UNL     1      89.988 107.822  78.685  1.00  0.00     0.061 C 
ATOM      6  C   UNL     1      90.208 105.265  75.848  1.00  0.00     0.102 C 
ATOM      7  C   UNL     1      91.537 105.762  75.256  1.00  0.00     0.115 C 
ATOM      8  C   UNL     1      90.089 109.309  78.687  1.00  0.00    -0.020 A 
ATOM      9  C   UNL     1      90.983 109.436  76.312  1.00  0.00    -0.011 A 
ATOM     10  C   UNL     1      90.569 109.972  77.538  1.00  0.00     0.010 A 
ATOM     11  C   UNL     1      91.657 107.261  75.374  1.00  0.00    -0.007 C 
ATOM     12  C   UNL     1      90.580 111.334  77.783  1.00  0.00     0.046 A 
ATOM     13  C   UNL     1      88.833 105.137  77.811  1.00  0.00     0.106 C 
ATOM     14  C   UNL     1      89.813 110.272  79.630  1.00  0.00     0.087 A 
ATOM     15  C   UNL     1      91.411 110.338  75.330  1.00  0.00     0.009 A 
ATOM     16  C   UNL     1      91.009 112.246  76.817  1.00  0.00     0.027 A 
ATOM     17  C   UNL     1      91.422 111.716  75.584  1.00  0.00     0.003 A 
ATOM     18  H   UNL     1      90.012 112.388  79.535  1.00  0.00     0.166 HD
ENDROOT
BRANCH   7  19
ATOM     19  C   UNL     1      91.644 105.340  73.789  1.00  0.00     0.225 C 
ATOM     20  O   UNL     1      92.190 104.317  73.389  1.00  0.00    -0.275 OA
ATOM     21  N   UNL     1      91.065 106.202  72.895  1.00  0.00    -0.369 N 
ATOM     22  H   UNL     1      91.155 105.983  71.911  1.00  0.00     0.159 HD
ATOM     23  H   UNL     1      90.720 107.113  73.163  1.00  0.00     0.159 HD
ENDBRANCH   7  19
TORSDOF 1
ENDMDL
MODEL 8
REMARK VINA RESULT:    -7.746      2.336      5.223
REMARK INTER + INTRA:          -8.305
REMARK INTER:                  -8.193
REMARK INTRA:                  -0.112
REMARK UNBOUND:                -0.106
REMARK SMILES CN1C[C@H](C(N)=O)C=C2c3cccc4[nH]cc(c34)C[C@H]21
REMARK SMILES IDX 2 1 15 2 20 3 9 4 19 5 3 6 4 7 17 8 10 9 18 10 8 11 14 12
REMARK SMILES IDX 1 13 16 14 11 15 13 16 12 17 5 19 7 20 6 21
REMARK H PARENT 15 18 6 22 6 23
ROOT
ATOM      1  N   UNL     1      89.862 106.686  76.397  1.00  0.00    -0.298 NA
ATOM      2  N   UNL     1      91.903 112.343  76.511  1.00  0.00    -0.361 N 
ATOM      3  C   UNL     1      90.327 108.031  75.933  1.00  0.00     0.091 C 
ATOM      4  C   UNL     1      91.653 107.969  75.107  1.00  0.00    -0.026 C 
ATOM      5  C   UNL     1      90.418 109.019  77.159  1.00  0.00     0.061 C 
ATOM      6  C   UNL     1      90.042 105.681  75.328  1.00  0.00     0.102 C 
ATOM      7  C   UNL     1      91.532 105.484  75.001  1.00  0.00     0.115 C 
ATOM      8  C   UNL     1      91.087 110.293  76.769  1.00  0.00    -0.020 A 
ATOM      9  C   UNL     1      92.299 109.263  74.787  1.00  0.00    -0.011 A 
ATOM     10  C   UNL     1      91.950 110.307  75.652  1.00  0.00     0.010 A 
ATOM     11  C   UNL     1      92.205 106.803  74.719  1.00  0.00    -0.007 C 
ATOM     12  C   UNL     1      92.453 111.587  75.497  1.00  0.00     0.046 A 
ATOM     13  C   UNL     1      88.454 106.714  76.802  1.00  0.00     0.106 C 
ATOM     14  C   UNL     1      91.072 111.566  77.290  1.00  0.00     0.087 A 
ATOM     15  C   UNL     1      93.183 109.564  73.743  1.00  0.00     0.009 A 
ATOM     16  C   UNL     1      93.340 111.903  74.465  1.00  0.00     0.027 A 
ATOM     17  C   UNL     1      93.692 110.861  73.591  1.00  0.00     0.003 A 
ATOM     18  H   UNL     1      92.088 113.324  76.659  1.00  0.00     0.166 HD
ENDROOT
BRANCH   7  19
ATOM     19  C   UNL     1      91.681 104.549  73.798  1.00  0.00     0.225 C 
ATOM     20  O   UNL     1      92.572 103.719  73.659  1.00  0.00    -0.275 OA
ATOM     21  N   UNL     1      90.716 104.687  72.836  1.00  0.00    -0.369 N 
ATOM     22  H   UNL     1      90.806 104.121  72.002  1.00  0.00     0.159 HD
ATOM     23  H   UNL     1      90.042 105.439  72.845  1.00  0.00     0.159 HD
ENDBRANCH   7  19
TORSDOF 1
ENDMDL
MODEL 9
REMARK VINA RESULT:    -7.710      4.853      7.756
REMARK INTER + INTRA:          -8.268
REMARK INTER:                  -8.164
REMARK INTRA:                  -0.103
REMARK UNBOUND:                -0.106
REMARK SMILES CN1C[C@H](C(N)=O)C=C2c3cccc4[nH]cc(c34)C[C@H]21
REMARK SMILES IDX 2 1 15 2 20 3 9 4 19 5 3 6 4 7 17 8 10 9 18 10 8 11 14 12
REMARK SMILES IDX 1 13 16 14 11 15 13 16 12 17 5 19 7 20 6 21
REMARK H PARENT 15 18 6 22 6 23
ROOT
ATOM      1  N   UNL     1      88.325 112.103  83.002  1.00  0.00    -0.298 NA
ATOM      2  N   UNL     1      91.296 107.046  81.673  1.00  0.00    -0.361 N 
ATOM      3  C   UNL     1      89.293 111.159  82.360  1.00  0.00     0.091 C 
ATOM      4  C   UNL     1      89.032 110.961  80.832  1.00  0.00    -0.026 C 
ATOM      5  C   UNL     1      89.322 109.797  83.156  1.00  0.00     0.061 C 
ATOM      6  C   UNL     1      88.073 113.262  82.121  1.00  0.00     0.102 C 
ATOM      7  C   UNL     1      87.381 112.825  80.818  1.00  0.00     0.115 C 
ATOM      8  C   UNL     1      90.103 108.765  82.417  1.00  0.00    -0.020 A 
ATOM      9  C   UNL     1      89.803 109.890  80.158  1.00  0.00    -0.011 A 
ATOM     10  C   UNL     1      90.269 108.890  81.021  1.00  0.00     0.010 A 
ATOM     11  C   UNL     1      88.137 111.703  80.152  1.00  0.00    -0.007 C 
ATOM     12  C   UNL     1      91.015 107.817  80.565  1.00  0.00     0.046 A 
ATOM     13  C   UNL     1      88.816 112.580  84.298  1.00  0.00     0.106 C 
ATOM     14  C   UNL     1      90.747 107.612  82.804  1.00  0.00     0.087 A 
ATOM     15  C   UNL     1      90.125 109.766  78.801  1.00  0.00     0.009 A 
ATOM     16  C   UNL     1      91.339 107.676  79.214  1.00  0.00     0.027 A 
ATOM     17  C   UNL     1      90.879 108.676  78.343  1.00  0.00     0.003 A 
ATOM     18  H   UNL     1      91.828 106.187  81.653  1.00  0.00     0.166 HD
ENDROOT
BRANCH   7  19
ATOM     19  C   UNL     1      87.263 114.018  79.866  1.00  0.00     0.225 C 
ATOM     20  O   UNL     1      87.044 113.938  78.663  1.00  0.00    -0.275 OA
ATOM     21  N   UNL     1      87.415 115.245  80.456  1.00  0.00    -0.369 N 
ATOM     22  H   UNL     1      87.392 116.057  79.852  1.00  0.00     0.159 HD
ATOM     23  H   UNL     1      87.723 115.355  81.411  1.00  0.00     0.159 HD
ENDBRANCH   7  19
TORSDOF 1
ENDMDL
MODEL 10
REMARK VINA RESULT:    -7.675      2.591      5.376
REMARK INTER + INTRA:          -8.230
REMARK INTER:                  -8.131
REMARK INTRA:                  -0.100
REMARK UNBOUND:                -0.106
REMARK SMILES CN1C[C@H](C(N)=O)C=C2c3cccc4[nH]cc(c34)C[C@H]21
REMARK SMILES IDX 2 1 15 2 20 3 9 4 19 5 3 6 4 7 17 8 10 9 18 10 8 11 14 12
REMARK SMILES IDX 1 13 16 14 11 15 13 16 12 17 5 19 7 20 6 21
REMARK H PARENT 15 18 6 22 6 23
ROOT
ATOM      1  N   UNL     1      89.106 107.029  78.055  1.00  0.00    -0.298 NA
ATOM      2  N   UNL     1      92.071 106.840  72.825  1.00  0.00    -0.361 N 
ATOM      3  C   UNL     1      90.220 107.100  77.058  1.00  0.00     0.091 C 
ATOM      4  C   UNL     1      90.822 108.536  76.915  1.00  0.00    -0.026 C 
ATOM      5  C   UNL     1      89.745 106.499  75.679  1.00  0.00     0.061 C 
ATOM      6  C   UNL     1      89.430 107.836  79.249  1.00  0.00     0.102 C 
ATOM      7  C   UNL     1      89.537 109.329  78.895  1.00  0.00     0.115 C 
ATOM      8  C   UNL     1      90.750 106.758  74.610  1.00  0.00    -0.020 A 
ATOM      9  C   UNL     1      91.781 108.749  75.807  1.00  0.00    -0.011 A 
ATOM     10  C   UNL     1      91.654 107.832  74.755  1.00  0.00     0.010 A 
ATOM     11  C   UNL     1      90.478 109.546  77.737  1.00  0.00    -0.007 C 
ATOM     12  C   UNL     1      92.474 107.876  73.641  1.00  0.00     0.046 A 
ATOM     13  C   UNL     1      88.837 105.647  78.464  1.00  0.00     0.106 C 
ATOM     14  C   UNL     1      91.024 106.154  73.404  1.00  0.00     0.087 A 
ATOM     15  C   UNL     1      92.783 109.721  75.691  1.00  0.00     0.009 A 
ATOM     16  C   UNL     1      93.473 108.842  73.508  1.00  0.00     0.027 A 
ATOM     17  C   UNL     1      93.610 109.762  74.560  1.00  0.00     0.003 A 
ATOM     18  H   UNL     1      92.485 106.621  71.931  1.00  0.00     0.166 HD
ENDROOT
BRANCH   7  19
ATOM     19  C   UNL     1      90.013 110.120  80.116  1.00  0.00     0.225 C 
ATOM     20  O   UNL     1      90.408 109.624  81.165  1.00  0.00    -0.275 OA
ATOM     21  N   UNL     1      89.983 111.482  79.970  1.00  0.00    -0.369 N 
ATOM     22  H   UNL     1      90.244 112.042  80.771  1.00  0.00     0.159 HD
ATOM     23  H   UNL     1      89.548 111.935  79.179  1.00  0.00     0.159 HD
ENDBRANCH   7  19
TORSDOF 1
ENDMDL
MODEL 11
REMARK VINA RESULT:    -7.675      3.058      5.454
REMARK INTER + INTRA:          -8.230
REMARK INTER:                  -8.113
REMARK INTRA:                  -0.117
REMARK UNBOUND:                -0.106
REMARK SMILES CN1C[C@H](C(N)=O)C=C2c3cccc4[nH]cc(c34)C[C@H]21
REMARK SMILES IDX 2 1 15 2 20 3 9 4 19 5 3 6 4 7 17 8 10 9 18 10 8 11 14 12
REMARK SMILES IDX 1 13 16 14 11 15 13 16 12 17 5 19 7 20 6 21
REMARK H PARENT 15 18 6 22 6 23
ROOT
ATOM      1  N   UNL     1      90.975 111.295  77.467  1.00  0.00    -0.298 NA
ATOM      2  N   UNL     1      91.453 105.649  75.450  1.00  0.00    -0.361 N 
ATOM      3  C   UNL     1      90.600 109.915  77.026  1.00  0.00     0.091 C 
ATOM      4  C   UNL     1      89.984 109.052  78.175  1.00  0.00    -0.026 C 
ATOM      5  C   UNL     1      91.836 109.219  76.336  1.00  0.00     0.061 C 
ATOM      6  C   UNL     1      89.936 111.852  78.358  1.00  0.00     0.102 C 
ATOM      7  C   UNL     1      89.836 111.044  79.662  1.00  0.00     0.115 C 
ATOM      8  C   UNL     1      91.564 107.774  76.089  1.00  0.00    -0.020 A 
ATOM      9  C   UNL     1      89.778 107.613  77.889  1.00  0.00    -0.011 A 
ATOM     10  C   UNL     1      90.591 107.110  76.866  1.00  0.00     0.010 A 
ATOM     11  C   UNL     1      89.672 109.572  79.377  1.00  0.00    -0.007 C 
ATOM     12  C   UNL     1      90.526 105.788  76.461  1.00  0.00     0.046 A 
ATOM     13  C   UNL     1      91.163 112.193  76.323  1.00  0.00     0.106 C 
ATOM     14  C   UNL     1      92.090 106.850  75.215  1.00  0.00     0.087 A 
ATOM     15  C   UNL     1      88.883 106.721  78.493  1.00  0.00     0.009 A 
ATOM     16  C   UNL     1      89.644 104.885  77.057  1.00  0.00     0.027 A 
ATOM     17  C   UNL     1      88.822 105.383  78.081  1.00  0.00     0.003 A 
ATOM     18  H   UNL     1      91.637 104.788  74.955  1.00  0.00     0.166 HD
ENDROOT
BRANCH   7  19
ATOM     19  C   UNL     1      88.660 111.551  80.500  1.00  0.00     0.225 C 
ATOM     20  O   UNL     1      88.503 112.713  80.861  1.00  0.00    -0.275 OA
ATOM     21  N   UNL     1      87.738 110.597  80.840  1.00  0.00    -0.369 N 
ATOM     22  H   UNL     1      86.970 110.883  81.435  1.00  0.00     0.159 HD
ATOM     23  H   UNL     1      87.889 109.612  80.678  1.00  0.00     0.159 HD
ENDBRANCH   7  19
TORSDOF 1
ENDMDL
MODEL 12
REMARK VINA RESULT:    -7.526      1.841      2.710
REMARK INTER + INTRA:          -8.072
REMARK INTER:                  -7.967
REMARK INTRA:                  -0.106
REMARK UNBOUND:                -0.106
REMARK SMILES CN1C[C@H](C(N)=O)C=C2c3cccc4[nH]cc(c34)C[C@H]21
REMARK SMILES IDX 2 1 15 2 20 3 9 4 19 5 3 6 4 7 17 8 10 9 18 10 8 11 14 12
REMARK SMILES IDX 1 13 16 14 11 15 13 16 12 17 5 19 7 20 6 21
REMARK H PARENT 15 18 6 22 6 23
ROOT
ATOM      1  N   UNL     1      93.404 109.628  72.986  1.00  0.00    -0.298 NA
ATOM      2  N   UNL     1      89.626 105.449  75.092  1.00  0.00    -0.361 N 
ATOM      3  C   UNL     1      92.218 108.999  73.647  1.00  0.00     0.091 C 
ATOM      4  C   UNL     1      92.140 109.301  75.180  1.00  0.00    -0.026 C 
ATOM      5  C   UNL     1      92.182 107.455  73.328  1.00  0.00     0.061 C 
ATOM      6  C   UNL     1      93.615 110.998  73.500  1.00  0.00     0.102 C 
ATOM      7  C   UNL     1      93.971 110.978  74.996  1.00  0.00     0.115 C 
ATOM      8  C   UNL     1      91.148 106.764  74.149  1.00  0.00    -0.020 A 
ATOM      9  C   UNL     1      91.124 108.553  75.955  1.00  0.00    -0.011 A 
ATOM     10  C   UNL     1      90.721 107.350  75.360  1.00  0.00     0.010 A 
ATOM     11  C   UNL     1      92.964 110.178  75.783  1.00  0.00    -0.007 C 
ATOM     12  C   UNL     1      89.772 106.526  75.941  1.00  0.00     0.046 A 
ATOM     13  C   UNL     1      93.246 109.678  71.530  1.00  0.00     0.106 C 
ATOM     14  C   UNL     1      90.457 105.584  74.000  1.00  0.00     0.087 A 
ATOM     15  C   UNL     1      90.522 108.898  77.171  1.00  0.00     0.009 A 
ATOM     16  C   UNL     1      89.168 106.854  77.157  1.00  0.00     0.027 A 
ATOM     17  C   UNL     1      89.563 108.060  77.757  1.00  0.00     0.003 A 
ATOM     18  H   UNL     1      89.000 104.674  75.254  1.00  0.00     0.166 HD
ENDROOT
BRANCH   7  19
ATOM     19  C   UNL     1      94.042 112.410  75.532  1.00  0.00     0.225 C 
ATOM     20  O   UNL     1      93.086 113.050  75.957  1.00  0.00    -0.275 OA
ATOM     21  N   UNL     1      95.292 112.971  75.522  1.00  0.00    -0.369 N 
ATOM     22  H   UNL     1      95.373 113.933  75.824  1.00  0.00     0.159 HD
ATOM     23  H   UNL     1      96.080 112.534  75.067  1.00  0.00     0.159 HD
ENDBRANCH   7  19
TORSDOF 1
ENDMDL
MODEL 13
REMARK VINA RESULT:    -7.389      3.139      5.645
REMARK INTER + INTRA:          -7.927
REMARK INTER:                  -7.824
REMARK INTRA:                  -0.103
REMARK UNBOUND:                -0.106
REMARK SMILES CN1C[C@H](C(N)=O)C=C2c3cccc4[nH]cc(c34)C[C@H]21
REMARK SMILES IDX 2 1 15 2 20 3 9 4 19 5 3 6 4 7 17 8 10 9 18 10 8 11 14 12
REMARK SMILES IDX 1 13 16 14 11 15 13 16 12 17 5 19 7 20 6 21
REMARK H PARENT 15 18 6 22 6 23
ROOT
ATOM      1  N   UNL     1      91.181 111.373  77.463  1.00  0.00    -0.298 NA
ATOM      2  N   UNL     1      91.781 106.659  73.777  1.00  0.00    -0.361 N 
ATOM      3  C   UNL     1      90.833 110.231  76.559  1.00  0.00     0.091 C 
ATOM      4  C   UNL     1      90.070 109.081  77.293  1.00  0.00    -0.026 C 
ATOM      5  C   UNL     1      92.127 109.725  75.813  1.00  0.00     0.061 C 
ATOM      6  C   UNL     1      90.056 111.671  78.373  1.00  0.00     0.102 C 
ATOM      7  C   UNL     1      89.788 110.493  79.325  1.00  0.00     0.115 C 
ATOM      8  C   UNL     1      91.859 108.455  75.081  1.00  0.00    -0.020 A 
ATOM      9  C   UNL     1      89.871 107.824  76.535  1.00  0.00    -0.011 A 
ATOM     10  C   UNL     1      90.789 107.632  75.494  1.00  0.00     0.010 A 
ATOM     11  C   UNL     1      89.630 109.203  78.560  1.00  0.00    -0.007 C 
ATOM     12  C   UNL     1      90.746 106.516  74.675  1.00  0.00     0.046 A 
ATOM     13  C   UNL     1      91.519 112.579  76.701  1.00  0.00     0.106 C 
ATOM     14  C   UNL     1      92.464 107.833  74.014  1.00  0.00     0.087 A 
ATOM     15  C   UNL     1      88.895 106.837  76.718  1.00  0.00     0.009 A 
ATOM     16  C   UNL     1      89.782 105.521  74.849  1.00  0.00     0.027 A 
ATOM     17  C   UNL     1      88.856 105.708  75.888  1.00  0.00     0.003 A 
ATOM     18  H   UNL     1      92.005 105.993  73.051  1.00  0.00     0.166 HD
ENDROOT
BRANCH   7  19
ATOM     19  C   UNL     1      88.532 110.770  80.155  1.00  0.00     0.225 C 
ATOM     20  O   UNL     1      87.875 109.917  80.742  1.00  0.00    -0.275 OA
ATOM     21  N   UNL     1      88.161 112.087  80.220  1.00  0.00    -0.369 N 
ATOM     22  H   UNL     1      87.308 112.306  80.719  1.00  0.00     0.159 HD
ATOM     23  H   UNL     1      88.592 112.803  79.653  1.00  0.00     0.159 HD
ENDBRANCH   7  19
TORSDOF 1
ENDMDL
MODEL 14
REMARK VINA RESULT:    -7.334      4.557      7.094
REMARK INTER + INTRA:          -7.869
REMARK INTER:                  -7.761
REMARK INTRA:                  -0.108
REMARK UNBOUND:                -0.106
REMARK SMILES CN1C[C@H](C(N)=O)C=C2c3cccc4[nH]cc(c34)C[C@H]21
REMARK SMILES IDX 2 1 15 2 20 3 9 4 19 5 3 6 4 7 17 8 10 9 18 10 8 11 14 12
REMARK SMILES IDX 1 13 16 14 11 15 13 16 12 17 5 19 7 20 6 21
REMARK H PARENT 15 18 6 22 6 23
ROOT
ATOM      1  N   UNL     1      87.872 112.113  79.798  1.00  0.00    -0.298 NA
ATOM      2  N   UNL     1      88.399 109.854  85.347  1.00  0.00    -0.361 N 
ATOM      3  C   UNL     1      88.475 111.688  81.100  1.00  0.00     0.091 C 
ATOM      4  C   UNL     1      89.528 110.543  80.941  1.00  0.00    -0.026 C 
ATOM      5  C   UNL     1      87.334 111.329  82.128  1.00  0.00     0.061 C 
ATOM      6  C   UNL     1      88.907 112.178  78.746  1.00  0.00     0.102 C 
ATOM      7  C   UNL     1      89.495 110.785  78.463  1.00  0.00     0.115 C 
ATOM      8  C   UNL     1      87.900 110.692  83.351  1.00  0.00    -0.020 A 
ATOM      9  C   UNL     1      90.023 109.915  82.188  1.00  0.00    -0.011 A 
ATOM     10  C   UNL     1      89.156 110.053  83.280  1.00  0.00     0.010 A 
ATOM     11  C   UNL     1      89.958 110.122  79.736  1.00  0.00    -0.007 C 
ATOM     12  C   UNL     1      89.462 109.535  84.528  1.00  0.00     0.046 A 
ATOM     13  C   UNL     1      87.215 113.419  79.910  1.00  0.00     0.106 C 
ATOM     14  C   UNL     1      87.445 110.557  84.642  1.00  0.00     0.087 A 
ATOM     15  C   UNL     1      91.224 109.230  82.406  1.00  0.00     0.009 A 
ATOM     16  C   UNL     1      90.653 108.845  84.760  1.00  0.00     0.027 A 
ATOM     17  C   UNL     1      91.528 108.706  83.670  1.00  0.00     0.003 A 
ATOM     18  H   UNL     1      88.334 109.604  86.323  1.00  0.00     0.166 HD
ENDROOT
BRANCH   7  19
ATOM     19  C   UNL     1      90.660 110.902  77.477  1.00  0.00     0.225 C 
ATOM     20  O   UNL     1      91.173 109.963  76.879  1.00  0.00    -0.275 OA
ATOM     21  N   UNL     1      91.124 112.176  77.279  1.00  0.00    -0.369 N 
ATOM     22  H   UNL     1      91.925 112.291  76.671  1.00  0.00     0.159 HD
ATOM     23  H   UNL     1      90.821 112.959  77.841  1.00  0.00     0.159 HD
ENDBRANCH   7  19
TORSDOF 1
ENDMDL
MODEL 15
REMARK VINA RESULT:    -7.305      3.971      6.732
REMARK INTER + INTRA:          -7.839
REMARK INTER:                  -7.734
REMARK INTRA:                  -0.104
REMARK UNBOUND:                -0.106
REMARK SMILES CN1C[C@H](C(N)=O)C=C2c3cccc4[nH]cc(c34)C[C@H]21
REMARK SMILES IDX 2 1 15 2 20 3 9 4 19 5 3 6 4 7 17 8 10 9 18 10 8 11 14 12
REMARK SMILES IDX 1 13 16 14 11 15 13 16 12 17 5 19 7 20 6 21
REMARK H PARENT 15 18 6 22 6 23
ROOT
ATOM      1  N   UNL     1      90.774 108.330  81.115  1.00  0.00    -0.298 NA
ATOM      2  N   UNL     1      87.927 113.314  82.911  1.00  0.00    -0.361 N 
ATOM      3  C   UNL     1      89.721 109.385  81.253  1.00  0.00     0.091 C 
ATOM      4  C   UNL     1      89.464 110.170  79.926  1.00  0.00    -0.026 C 
ATOM      5  C   UNL     1      90.068 110.333  82.465  1.00  0.00     0.061 C 
ATOM      6  C   UNL     1      90.622 107.615  79.830  1.00  0.00     0.102 C 
ATOM      7  C   UNL     1      90.864 108.560  78.641  1.00  0.00     0.115 C 
ATOM      8  C   UNL     1      89.165 111.519  82.489  1.00  0.00    -0.020 A 
ATOM      9  C   UNL     1      88.596 111.366  80.017  1.00  0.00    -0.011 A 
ATOM     10  C   UNL     1      88.528 111.928  81.299  1.00  0.00     0.010 A 
ATOM     11  C   UNL     1      90.016 109.802  78.753  1.00  0.00    -0.007 C 
ATOM     12  C   UNL     1      87.757 113.045  81.570  1.00  0.00     0.046 A 
ATOM     13  C   UNL     1      90.714 107.363  82.215  1.00  0.00     0.106 C 
ATOM     14  C   UNL     1      88.781 112.393  83.480  1.00  0.00     0.087 A 
ATOM     15  C   UNL     1      87.844 111.981  79.008  1.00  0.00     0.009 A 
ATOM     16  C   UNL     1      87.006 113.673  80.573  1.00  0.00     0.027 A 
ATOM     17  C   UNL     1      87.066 113.113  79.287  1.00  0.00     0.003 A 
ATOM     18  H   UNL     1      87.488 114.080  83.402  1.00  0.00     0.166 HD
ENDROOT
BRANCH   7  19
ATOM     19  C   UNL     1      90.561 107.833  77.329  1.00  0.00     0.225 C 
ATOM     20  O   UNL     1      90.117 108.364  76.317  1.00  0.00    -0.275 OA
ATOM     21  N   UNL     1      90.830 106.490  77.336  1.00  0.00    -0.369 N 
ATOM     22  H   UNL     1      90.598 105.964  76.504  1.00  0.00     0.159 HD
ATOM     23  H   UNL     1      91.072 105.988  78.179  1.00  0.00     0.159 HD
ENDBRANCH   7  19
TORSDOF 1
ENDMDL
MODEL 16
REMARK VINA RESULT:    -7.228      2.997      4.890
REMARK INTER + INTRA:          -7.757
REMARK INTER:                  -7.639
REMARK INTRA:                  -0.118
REMARK UNBOUND:                -0.106
REMARK SMILES CN1C[C@H](C(N)=O)C=C2c3cccc4[nH]cc(c34)C[C@H]21
REMARK SMILES IDX 2 1 15 2 20 3 9 4 19 5 3 6 4 7 17 8 10 9 18 10 8 11 14 12
REMARK SMILES IDX 1 13 16 14 11 15 13 16 12 17 5 19 7 20 6 21
REMARK H PARENT 15 18 6 22 6 23
ROOT
ATOM      1  N   UNL     1      90.742 109.395  76.401  1.00  0.00    -0.298 NA
ATOM      2  N   UNL     1      89.286 111.092  81.985  1.00  0.00    -0.361 N 
ATOM      3  C   UNL     1      90.808 109.582  77.885  1.00  0.00     0.091 C 
ATOM      4  C   UNL     1      90.719 108.236  78.675  1.00  0.00    -0.026 C 
ATOM      5  C   UNL     1      89.723 110.631  78.342  1.00  0.00     0.061 C 
ATOM      6  C   UNL     1      91.543 108.222  75.993  1.00  0.00     0.102 C 
ATOM      7  C   UNL     1      90.956 106.924  76.572  1.00  0.00     0.115 C 
ATOM      8  C   UNL     1      89.613 110.671  79.828  1.00  0.00    -0.020 A 
ATOM      9  C   UNL     1      90.565 108.336  80.145  1.00  0.00    -0.011 A 
ATOM     10  C   UNL     1      90.026 109.553  80.583  1.00  0.00     0.010 A 
ATOM     11  C   UNL     1      90.755 107.037  78.062  1.00  0.00    -0.007 C 
ATOM     12  C   UNL     1      89.821 109.823  81.925  1.00  0.00     0.046 A 
ATOM     13  C   UNL     1      91.223 110.581  75.687  1.00  0.00     0.106 C 
ATOM     14  C   UNL     1      89.155 111.617  80.716  1.00  0.00     0.087 A 
ATOM     15  C   UNL     1      90.897 107.393  81.126  1.00  0.00     0.009 A 
ATOM     16  C   UNL     1      90.141 108.891  82.914  1.00  0.00     0.027 A 
ATOM     17  C   UNL     1      90.685 107.670  82.483  1.00  0.00     0.003 A 
ATOM     18  H   UNL     1      89.026 111.565  82.838  1.00  0.00     0.166 HD
ENDROOT
BRANCH   7  19
ATOM     19  C   UNL     1      91.883 105.748  76.254  1.00  0.00     0.225 C 
ATOM     20  O   UNL     1      92.155 105.352  75.126  1.00  0.00    -0.275 OA
ATOM     21  N   UNL     1      92.428 105.129  77.348  1.00  0.00    -0.369 N 
ATOM     22  H   UNL     1      93.008 104.316  77.183  1.00  0.00     0.159 HD
ATOM     23  H   UNL     1      92.134 105.335  78.293  1.00  0.00     0.159 HD
ENDBRANCH   7  19
TORSDOF 1
ENDMDL
MODEL 17
REMARK VINA RESULT:    -7.224      3.396      6.067
REMARK INTER + INTRA:          -7.753
REMARK INTER:                  -7.641
REMARK INTRA:                  -0.112
REMARK UNBOUND:                -0.106
REMARK SMILES CN1C[C@H](C(N)=O)C=C2c3cccc4[nH]cc(c34)C[C@H]21
REMARK SMILES IDX 2 1 15 2 20 3 9 4 19 5 3 6 4 7 17 8 10 9 18 10 8 11 14 12
REMARK SMILES IDX 1 13 16 14 11 15 13 16 12 17 5 19 7 20 6 21
REMARK H PARENT 15 18 6 22 6 23
ROOT
ATOM      1  N   UNL     1      89.865 108.525  80.520  1.00  0.00    -0.298 NA
ATOM      2  N   UNL     1      92.244 107.492  75.094  1.00  0.00    -0.361 N 
ATOM      3  C   UNL     1      90.702 108.685  79.290  1.00  0.00     0.091 C 
ATOM      4  C   UNL     1      90.349 109.972  78.474  1.00  0.00    -0.026 C 
ATOM      5  C   UNL     1      90.630 107.372  78.418  1.00  0.00     0.061 C 
ATOM      6  C   UNL     1      89.690 109.827  81.198  1.00  0.00     0.102 C 
ATOM      7  C   UNL     1      88.897 110.806  80.316  1.00  0.00     0.115 C 
ATOM      8  C   UNL     1      91.267 107.581  77.087  1.00  0.00    -0.020 A 
ATOM      9  C   UNL     1      90.975 110.105  77.138  1.00  0.00    -0.011 A 
ATOM     10  C   UNL     1      91.378 108.890  76.571  1.00  0.00     0.010 A 
ATOM     11  C   UNL     1      89.503 110.910  78.939  1.00  0.00    -0.007 C 
ATOM     12  C   UNL     1      91.989 108.827  75.330  1.00  0.00     0.046 A 
ATOM     13  C   UNL     1      90.464 107.570  81.457  1.00  0.00     0.106 C 
ATOM     14  C   UNL     1      91.809 106.726  76.155  1.00  0.00     0.087 A 
ATOM     15  C   UNL     1      91.219 111.269  76.398  1.00  0.00     0.009 A 
ATOM     16  C   UNL     1      92.233 109.977  74.577  1.00  0.00     0.027 A 
ATOM     17  C   UNL     1      91.836 111.200  75.142  1.00  0.00     0.003 A 
ATOM     18  H   UNL     1      92.684 107.132  74.259  1.00  0.00     0.166 HD
ENDROOT
BRANCH   7  19
ATOM     19  C   UNL     1      88.855 112.185  80.979  1.00  0.00     0.225 C 
ATOM     20  O   UNL     1      87.904 112.958  80.933  1.00  0.00    -0.275 OA
ATOM     21  N   UNL     1      89.987 112.531  81.667  1.00  0.00    -0.369 N 
ATOM     22  H   UNL     1      90.018 113.455  82.079  1.00  0.00     0.159 HD
ATOM     23  H   UNL     1      90.837 111.987  81.625  1.00  0.00     0.159 HD
ENDBRANCH   7  19
TORSDOF 1
ENDMDL
MODEL 18
REMARK VINA RESULT:    -7.112      1.808      3.779
REMARK INTER + INTRA:          -7.634
REMARK INTER:                  -7.515
REMARK INTRA:                  -0.119
REMARK UNBOUND:                -0.106
REMARK SMILES CN1C[C@H](C(N)=O)C=C2c3cccc4[nH]cc(c34)C[C@H]21
REMARK SMILES IDX 2 1 15 2 20 3 9 4 19 5 3 6 4 7 17 8 10 9 18 10 8 11 14 12
REMARK SMILES IDX 1 13 16 14 11 15 13 16 12 17 5 19 7 20 6 21
REMARK H PARENT 15 18 6 22 6 23
ROOT
ATOM      1  N   UNL     1      92.798 112.200  75.536  1.00  0.00    -0.298 NA
ATOM      2  N   UNL     1      89.171 109.284  79.346  1.00  0.00    -0.361 N 
ATOM      3  C   UNL     1      92.249 111.129  76.425  1.00  0.00     0.091 C 
ATOM      4  C   UNL     1      91.852 109.832  75.647  1.00  0.00    -0.026 C 
ATOM      5  C   UNL     1      91.065 111.706  77.293  1.00  0.00     0.061 C 
ATOM      6  C   UNL     1      93.703 111.617  74.524  1.00  0.00     0.102 C 
ATOM      7  C   UNL     1      92.938 110.680  73.574  1.00  0.00     0.115 C 
ATOM      8  C   UNL     1      90.356 110.616  78.021  1.00  0.00    -0.020 A 
ATOM      9  C   UNL     1      91.109 108.801  76.408  1.00  0.00    -0.011 A 
ATOM     10  C   UNL     1      90.430 109.295  77.530  1.00  0.00     0.010 A 
ATOM     11  C   UNL     1      92.143 109.657  74.344  1.00  0.00    -0.007 C 
ATOM     12  C   UNL     1      89.691 108.470  78.361  1.00  0.00     0.046 A 
ATOM     13  C   UNL     1      93.522 113.218  76.303  1.00  0.00     0.106 C 
ATOM     14  C   UNL     1      89.569 110.589  79.148  1.00  0.00     0.087 A 
ATOM     15  C   UNL     1      91.015 107.427  76.157  1.00  0.00     0.009 A 
ATOM     16  C   UNL     1      89.583 107.099  78.120  1.00  0.00     0.027 A 
ATOM     17  C   UNL     1      90.264 106.596  77.000  1.00  0.00     0.003 A 
ATOM     18  H   UNL     1      88.582 108.964  80.101  1.00  0.00     0.166 HD
ENDROOT
BRANCH   7  19
ATOM     19  C   UNL     1      93.921 109.981  72.630  1.00  0.00     0.225 C 
ATOM     20  O   UNL     1      93.928 110.099  71.410  1.00  0.00    -0.275 OA
ATOM     21  N   UNL     1      94.846 109.182  73.247  1.00  0.00    -0.369 N 
ATOM     22  H   UNL     1      95.483 108.664  72.655  1.00  0.00     0.159 HD
ATOM     23  H   UNL     1      94.799 108.954  74.230  1.00  0.00     0.159 HD
ENDBRANCH   7  19
TORSDOF 1
ENDMDL
