MODEL 1
REMARK VINA RESULT:    -7.881      0.000      0.000
REMARK INTER + INTRA:          -8.459
REMARK INTER:                  -8.342
REMARK INTRA:                  -0.117
REMARK UNBOUND:                -0.117
REMARK SMILES CN1C[C@H](C(N)=O)C=C2c3cccc4[nH]cc(c34)C[C@H]21
REMARK SMILES IDX 2 1 15 2 20 3 9 4 19 5 3 6 4 7 17 8 10 9 18 10 8 11 14 12
REMARK SMILES IDX 1 13 16 14 11 15 13 16 12 17 5 19 7 20 6 21
REMARK H PARENT 15 18 6 22 6 23
ROOT
ATOM      1  N   UNL     1      99.972 106.217  97.579  1.00  0.00    -0.298 NA
ATOM      2  N   UNL     1     101.001 104.844 103.343  1.00  0.00    -0.361 N 
ATOM      3  C   UNL     1     100.411 105.466  98.797  1.00  0.00     0.091 C 
ATOM      4  C   UNL     1      99.617 104.136  99.014  1.00  0.00    -0.026 C 
ATOM      5  C   UNL     1     100.367 106.414 100.056  1.00  0.00     0.061 C 
ATOM      6  C   UNL     1      99.734 105.286  96.456  1.00  0.00     0.102 C 
ATOM      7  C   UNL     1      98.565 104.336  96.766  1.00  0.00     0.115 C 
ATOM      8  C   UNL     1     100.581 105.641 101.313  1.00  0.00    -0.020 A 
ATOM      9  C   UNL     1      99.835 103.433 100.299  1.00  0.00    -0.011 A 
ATOM     10  C   UNL     1     100.301 104.258 101.331  1.00  0.00     0.010 A 
ATOM     11  C   UNL     1      98.759 103.652  98.096  1.00  0.00    -0.007 C 
ATOM     12  C   UNL     1     100.566 103.768 102.598  1.00  0.00     0.046 A 
ATOM     13  C   UNL     1     100.966 107.216  97.175  1.00  0.00     0.106 C 
ATOM     14  C   UNL     1     101.014 105.987 102.572  1.00  0.00     0.087 A 
ATOM     15  C   UNL     1      99.648 102.078 100.598  1.00  0.00     0.009 A 
ATOM     16  C   UNL     1     100.380 102.421 102.913  1.00  0.00     0.027 A 
ATOM     17  C   UNL     1      99.917 101.587 101.883  1.00  0.00     0.003 A 
ATOM     18  H   UNL     1     101.268 104.796 104.316  1.00  0.00     0.166 HD
ENDROOT
BRANCH   7  19
ATOM     19  C   UNL     1      98.434 103.293  95.652  1.00  0.00     0.225 C 
ATOM     20  O   UNL     1      98.368 103.547  94.455  1.00  0.00    -0.275 OA
ATOM     21  N   UNL     1      98.399 101.992  96.080  1.00  0.00    -0.369 N 
ATOM     22  H   UNL     1      98.264 101.275  95.378  1.00  0.00     0.159 HD
ATOM     23  H   UNL     1      98.320 101.742  97.055  1.00  0.00     0.159 HD
ENDBRANCH   7  19
TORSDOF 1
ENDMDL
MODEL 2
REMARK VINA RESULT:    -7.701      5.051      7.273
REMARK INTER + INTRA:          -8.268
REMARK INTER:                  -8.163
REMARK INTRA:                  -0.105
REMARK UNBOUND:                -0.117
REMARK SMILES CN1C[C@H](C(N)=O)C=C2c3cccc4[nH]cc(c34)C[C@H]21
REMARK SMILES IDX 2 1 15 2 20 3 9 4 19 5 3 6 4 7 17 8 10 9 18 10 8 11 14 12
REMARK SMILES IDX 1 13 16 14 11 15 13 16 12 17 5 19 7 20 6 21
REMARK H PARENT 15 18 6 22 6 23
ROOT
ATOM      1  N   UNL     1      96.960 106.411  93.818  1.00  0.00    -0.298 NA
ATOM      2  N   UNL     1      94.558 111.432  96.098  1.00  0.00    -0.361 N 
ATOM      3  C   UNL     1      96.730 107.588  94.714  1.00  0.00     0.091 C 
ATOM      4  C   UNL     1      96.316 107.181  96.165  1.00  0.00    -0.026 C 
ATOM      5  C   UNL     1      95.704 108.580  94.042  1.00  0.00     0.061 C 
ATOM      6  C   UNL     1      97.686 105.346  94.542  1.00  0.00     0.102 C 
ATOM      7  C   UNL     1      96.840 104.792  95.701  1.00  0.00     0.115 C 
ATOM      8  C   UNL     1      95.286 109.643  94.999  1.00  0.00    -0.020 A 
ATOM      9  C   UNL     1      95.865 108.272  97.060  1.00  0.00    -0.011 A 
ATOM     10  C   UNL     1      95.393 109.406  96.386  1.00  0.00     0.010 A 
ATOM     11  C   UNL     1      96.340 105.903  96.589  1.00  0.00    -0.007 C 
ATOM     12  C   UNL     1      94.939 110.525  97.064  1.00  0.00     0.046 A 
ATOM     13  C   UNL     1      97.720 106.785  92.622  1.00  0.00     0.106 C 
ATOM     14  C   UNL     1      94.764 110.906  94.839  1.00  0.00     0.087 A 
ATOM     15  C   UNL     1      95.866 108.313  98.459  1.00  0.00     0.009 A 
ATOM     16  C   UNL     1      94.928 110.579  98.459  1.00  0.00     0.027 A 
ATOM     17  C   UNL     1      95.404 109.447  99.141  1.00  0.00     0.003 A 
ATOM     18  H   UNL     1      94.180 112.348  96.289  1.00  0.00     0.166 HD
ENDROOT
BRANCH   7  19
ATOM     19  C   UNL     1      97.667 103.796  96.519  1.00  0.00     0.225 C 
ATOM     20  O   UNL     1      98.492 104.103  97.373  1.00  0.00    -0.275 OA
ATOM     21  N   UNL     1      97.425 102.477  96.241  1.00  0.00    -0.369 N 
ATOM     22  H   UNL     1      97.987 101.789  96.726  1.00  0.00     0.159 HD
ATOM     23  H   UNL     1      96.855 102.181  95.462  1.00  0.00     0.159 HD
ENDBRANCH   7  19
TORSDOF 1
ENDMDL
MODEL 3
REMARK VINA RESULT:    -7.653      6.062      8.713
REMARK INTER + INTRA:          -8.217
REMARK INTER:                  -8.117
REMARK INTRA:                  -0.099
REMARK UNBOUND:                -0.117
REMARK SMILES CN1C[C@H](C(N)=O)C=C2c3cccc4[nH]cc(c34)C[C@H]21
REMARK SMILES IDX 2 1 15 2 20 3 9 4 19 5 3 6 4 7 17 8 10 9 18 10 8 11 14 12
REMARK SMILES IDX 1 13 16 14 11 15 13 16 12 17 5 19 7 20 6 21
REMARK H PARENT 15 18 6 22 6 23
ROOT
ATOM      1  N   UNL     1      95.121 109.518  97.510  1.00  0.00    -0.298 NA
ATOM      2  N   UNL     1      97.764 104.919  94.674  1.00  0.00    -0.361 N 
ATOM      3  C   UNL     1      96.030 108.752  96.600  1.00  0.00     0.091 C 
ATOM      4  C   UNL     1      95.768 109.044  95.087  1.00  0.00    -0.026 C 
ATOM      5  C   UNL     1      95.963 107.214  96.945  1.00  0.00     0.061 C 
ATOM      6  C   UNL     1      94.952 110.903  97.024  1.00  0.00     0.102 C 
ATOM      7  C   UNL     1      94.243 110.927  95.659  1.00  0.00     0.115 C 
ATOM      8  C   UNL     1      96.680 106.406  95.919  1.00  0.00    -0.020 A 
ATOM      9  C   UNL     1      96.473 108.180  94.111  1.00  0.00    -0.011 A 
ATOM     10  C   UNL     1      96.865 106.937  94.625  1.00  0.00     0.010 A 
ATOM     11  C   UNL     1      94.930 110.014  94.675  1.00  0.00    -0.007 C 
ATOM     12  C   UNL     1      97.542 106.007  93.856  1.00  0.00     0.046 A 
ATOM     13  C   UNL     1      95.632 109.546  98.883  1.00  0.00     0.106 C 
ATOM     14  C   UNL     1      97.244 105.151  95.930  1.00  0.00     0.087 A 
ATOM     15  C   UNL     1      96.797 108.452  92.776  1.00  0.00     0.009 A 
ATOM     16  C   UNL     1      97.868 106.261  92.522  1.00  0.00     0.027 A 
ATOM     17  C   UNL     1      97.481 107.506  92.001  1.00  0.00     0.003 A 
ATOM     18  H   UNL     1      98.238 104.075  94.388  1.00  0.00     0.166 HD
ENDROOT
BRANCH   7  19
ATOM     19  C   UNL     1      94.211 112.358  95.115  1.00  0.00     0.225 C 
ATOM     20  O   UNL     1      94.827 113.305  95.592  1.00  0.00    -0.275 OA
ATOM     21  N   UNL     1      93.426 112.538  94.008  1.00  0.00    -0.369 N 
ATOM     22  H   UNL     1      93.340 113.479  93.646  1.00  0.00     0.159 HD
ATOM     23  H   UNL     1      92.804 111.822  93.659  1.00  0.00     0.159 HD
ENDBRANCH   7  19
TORSDOF 1
ENDMDL
MODEL 4
REMARK VINA RESULT:    -7.406      4.882      8.442
REMARK INTER + INTRA:          -7.955
REMARK INTER:                  -7.838
REMARK INTRA:                  -0.117
REMARK UNBOUND:                -0.117
REMARK SMILES CN1C[C@H](C(N)=O)C=C2c3cccc4[nH]cc(c34)C[C@H]21
REMARK SMILES IDX 2 1 15 2 20 3 9 4 19 5 3 6 4 7 17 8 10 9 18 10 8 11 14 12
REMARK SMILES IDX 1 13 16 14 11 15 13 16 12 17 5 19 7 20 6 21
REMARK H PARENT 15 18 6 22 6 23
ROOT
ATOM      1  N   UNL     1      97.287 106.378  96.010  1.00  0.00    -0.298 NA
ATOM      2  N   UNL     1      97.100 108.605  90.426  1.00  0.00    -0.361 N 
ATOM      3  C   UNL     1      96.993 106.506  94.548  1.00  0.00     0.091 C 
ATOM      4  C   UNL     1      97.701 105.413  93.684  1.00  0.00    -0.026 C 
ATOM      5  C   UNL     1      97.316 107.972  94.062  1.00  0.00     0.061 C 
ATOM      6  C   UNL     1      97.264 104.958  96.419  1.00  0.00     0.102 C 
ATOM      7  C   UNL     1      98.388 104.167  95.728  1.00  0.00     0.115 C 
ATOM      8  C   UNL     1      97.247 108.068  92.577  1.00  0.00    -0.020 A 
ATOM      9  C   UNL     1      97.640 105.583  92.214  1.00  0.00    -0.011 A 
ATOM     10  C   UNL     1      97.415 106.902  91.799  1.00  0.00     0.010 A 
ATOM     11  C   UNL     1      98.358 104.374  94.234  1.00  0.00    -0.007 C 
ATOM     12  C   UNL     1      97.321 107.244  90.461  1.00  0.00     0.046 A 
ATOM     13  C   UNL     1      96.323 107.129  96.821  1.00  0.00     0.106 C 
ATOM     14  C   UNL     1      97.054 109.116  91.706  1.00  0.00     0.087 A 
ATOM     15  C   UNL     1      97.763 104.610  91.214  1.00  0.00     0.009 A 
ATOM     16  C   UNL     1      97.447 106.287  89.452  1.00  0.00     0.027 A 
ATOM     17  C   UNL     1      97.668 104.961  89.861  1.00  0.00     0.003 A 
ATOM     18  H   UNL     1      96.991 109.146  89.580  1.00  0.00     0.166 HD
ENDROOT
BRANCH   7  19
ATOM     19  C   UNL     1      98.252 102.678  96.055  1.00  0.00     0.225 C 
ATOM     20  O   UNL     1      98.237 102.205  97.187  1.00  0.00    -0.275 OA
ATOM     21  N   UNL     1      98.136 101.855  94.967  1.00  0.00    -0.369 N 
ATOM     22  H   UNL     1      98.093 100.858  95.139  1.00  0.00     0.159 HD
ATOM     23  H   UNL     1      98.273 102.181  94.021  1.00  0.00     0.159 HD
ENDBRANCH   7  19
TORSDOF 1
ENDMDL
MODEL 5
REMARK VINA RESULT:    -7.387      6.301      8.963
REMARK INTER + INTRA:          -7.935
REMARK INTER:                  -7.813
REMARK INTRA:                  -0.123
REMARK UNBOUND:                -0.117
REMARK SMILES CN1C[C@H](C(N)=O)C=C2c3cccc4[nH]cc(c34)C[C@H]21
REMARK SMILES IDX 2 1 15 2 20 3 9 4 19 5 3 6 4 7 17 8 10 9 18 10 8 11 14 12
REMARK SMILES IDX 1 13 16 14 11 15 13 16 12 17 5 19 7 20 6 21
REMARK H PARENT 15 18 6 22 6 23
ROOT
ATOM      1  N   UNL     1      96.937 109.048  97.626  1.00  0.00    -0.298 NA
ATOM      2  N   UNL     1      99.490 114.493  97.720  1.00  0.00    -0.361 N 
ATOM      3  C   UNL     1      97.162 110.509  97.387  1.00  0.00     0.091 C 
ATOM      4  C   UNL     1      97.357 110.859  95.875  1.00  0.00    -0.026 C 
ATOM      5  C   UNL     1      98.349 111.023  98.289  1.00  0.00     0.061 C 
ATOM      6  C   UNL     1      96.034 108.491  96.597  1.00  0.00     0.102 C 
ATOM      7  C   UNL     1      96.677 108.560  95.202  1.00  0.00     0.115 C 
ATOM      8  C   UNL     1      98.742 112.410  97.914  1.00  0.00    -0.020 A 
ATOM      9  C   UNL     1      97.792 112.240  95.563  1.00  0.00    -0.011 A 
ATOM     10  C   UNL     1      98.445 112.887  96.619  1.00  0.00     0.010 A 
ATOM     11  C   UNL     1      97.164 109.954  94.896  1.00  0.00    -0.007 C 
ATOM     12  C   UNL     1      98.912 114.186  96.506  1.00  0.00     0.046 A 
ATOM     13  C   UNL     1      96.367 108.801  98.953  1.00  0.00     0.106 C 
ATOM     14  C   UNL     1      99.393 113.421  98.583  1.00  0.00     0.087 A 
ATOM     15  C   UNL     1      97.623 112.962  94.375  1.00  0.00     0.009 A 
ATOM     16  C   UNL     1      98.757 114.917  95.327  1.00  0.00     0.027 A 
ATOM     17  C   UNL     1      98.100 114.276  94.265  1.00  0.00     0.003 A 
ATOM     18  H   UNL     1      99.924 115.378  97.940  1.00  0.00     0.166 HD
ENDROOT
BRANCH   7  19
ATOM     19  C   UNL     1      95.668 108.111  94.141  1.00  0.00     0.225 C 
ATOM     20  O   UNL     1      95.662 107.012  93.597  1.00  0.00    -0.275 OA
ATOM     21  N   UNL     1      94.718 109.042  93.817  1.00  0.00    -0.369 N 
ATOM     22  H   UNL     1      94.061 108.802  93.085  1.00  0.00     0.159 HD
ATOM     23  H   UNL     1      94.759 109.998  94.141  1.00  0.00     0.159 HD
ENDBRANCH   7  19
TORSDOF 1
ENDMDL
MODEL 6
REMARK VINA RESULT:    -7.194      7.524      9.177
REMARK INTER + INTRA:          -7.732
REMARK INTER:                  -7.615
REMARK INTRA:                  -0.117
REMARK UNBOUND:                -0.117
REMARK SMILES CN1C[C@H](C(N)=O)C=C2c3cccc4[nH]cc(c34)C[C@H]21
REMARK SMILES IDX 2 1 15 2 20 3 9 4 19 5 3 6 4 7 17 8 10 9 18 10 8 11 14 12
REMARK SMILES IDX 1 13 16 14 11 15 13 16 12 17 5 19 7 20 6 21
REMARK H PARENT 15 18 6 22 6 23
ROOT
ATOM      1  N   UNL     1      99.148 113.016  96.078  1.00  0.00    -0.298 NA
ATOM      2  N   UNL     1      93.720 110.433  95.885  1.00  0.00    -0.361 N 
ATOM      3  C   UNL     1      97.812 112.500  96.511  1.00  0.00     0.091 C 
ATOM      4  C   UNL     1      97.913 111.335  97.549  1.00  0.00    -0.026 C 
ATOM      5  C   UNL     1      96.949 112.117  95.247  1.00  0.00     0.061 C 
ATOM      6  C   UNL     1     100.065 113.109  97.233  1.00  0.00     0.102 C 
ATOM      7  C   UNL     1     100.359 111.718  97.819  1.00  0.00     0.115 C 
ATOM      8  C   UNL     1      95.708 111.396  95.647  1.00  0.00    -0.020 A 
ATOM      9  C   UNL     1      96.655 110.624  97.876  1.00  0.00    -0.011 A 
ATOM     10  C   UNL     1      95.667 110.726  96.888  1.00  0.00     0.010 A 
ATOM     11  C   UNL     1      99.081 110.971  98.110  1.00  0.00    -0.007 C 
ATOM     12  C   UNL     1      94.425 110.129  97.030  1.00  0.00     0.046 A 
ATOM     13  C   UNL     1      99.038 114.332  95.442  1.00  0.00     0.106 C 
ATOM     14  C   UNL     1      94.490 111.202  95.037  1.00  0.00     0.087 A 
ATOM     15  C   UNL     1      96.338 109.893  99.027  1.00  0.00     0.009 A 
ATOM     16  C   UNL     1      94.095 109.392  98.169  1.00  0.00     0.027 A 
ATOM     17  C   UNL     1      95.080 109.289  99.165  1.00  0.00     0.003 A 
ATOM     18  H   UNL     1      92.775 110.130  95.697  1.00  0.00     0.166 HD
ENDROOT
BRANCH   7  19
ATOM     19  C   UNL     1     101.190 111.856  99.097  1.00  0.00     0.225 C 
ATOM     20  O   UNL     1     102.214 111.226  99.341  1.00  0.00    -0.275 OA
ATOM     21  N   UNL     1     100.716 112.770  99.999  1.00  0.00    -0.369 N 
ATOM     22  H   UNL     1     101.210 112.857 100.878  1.00  0.00     0.159 HD
ATOM     23  H   UNL     1      99.814 113.215  99.901  1.00  0.00     0.159 HD
ENDBRANCH   7  19
TORSDOF 1
ENDMDL
MODEL 7
REMARK VINA RESULT:    -7.186      3.035      6.070
REMARK INTER + INTRA:          -7.723
REMARK INTER:                  -7.611
REMARK INTRA:                  -0.112
REMARK UNBOUND:                -0.117
REMARK SMILES CN1C[C@H](C(N)=O)C=C2c3cccc4[nH]cc(c34)C[C@H]21
REMARK SMILES IDX 2 1 15 2 20 3 9 4 19 5 3 6 4 7 17 8 10 9 18 10 8 11 14 12
REMARK SMILES IDX 1 13 16 14 11 15 13 16 12 17 5 19 7 20 6 21
REMARK H PARENT 15 18 6 22 6 23
ROOT
ATOM      1  N   UNL     1      99.523 105.244  98.329  1.00  0.00    -0.298 NA
ATOM      2  N   UNL     1      98.140 110.917  96.887  1.00  0.00    -0.361 N 
ATOM      3  C   UNL     1      98.756 106.431  97.835  1.00  0.00     0.091 C 
ATOM      4  C   UNL     1      98.445 106.364  96.304  1.00  0.00    -0.026 C 
ATOM      5  C   UNL     1      99.498 107.759  98.249  1.00  0.00     0.061 C 
ATOM      6  C   UNL     1      99.006 104.004  97.714  1.00  0.00     0.102 C 
ATOM      7  C   UNL     1      99.233 104.005  96.193  1.00  0.00     0.115 C 
ATOM      8  C   UNL     1      98.883 108.943  97.585  1.00  0.00    -0.020 A 
ATOM      9  C   UNL     1      97.876 107.585  95.687  1.00  0.00    -0.011 A 
ATOM     10  C   UNL     1      98.150 108.764  96.392  1.00  0.00     0.010 A 
ATOM     11  C   UNL     1      98.697 105.267  95.565  1.00  0.00    -0.007 C 
ATOM     12  C   UNL     1      97.689 109.998  95.964  1.00  0.00     0.046 A 
ATOM     13  C   UNL     1      99.452 105.127  99.788  1.00  0.00     0.106 C 
ATOM     14  C   UNL     1      98.867 110.288  97.876  1.00  0.00     0.087 A 
ATOM     15  C   UNL     1      97.108 107.699  94.521  1.00  0.00     0.009 A 
ATOM     16  C   UNL     1      96.927 110.129  94.801  1.00  0.00     0.027 A 
ATOM     17  C   UNL     1      96.645 108.951  94.091  1.00  0.00     0.003 A 
ATOM     18  H   UNL     1      97.963 111.911  96.839  1.00  0.00     0.166 HD
ENDROOT
BRANCH   7  19
ATOM     19  C   UNL     1      98.562 102.780  95.566  1.00  0.00     0.225 C 
ATOM     20  O   UNL     1      98.988 102.164  94.595  1.00  0.00    -0.275 OA
ATOM     21  N   UNL     1      97.404 102.378  96.178  1.00  0.00    -0.369 N 
ATOM     22  H   UNL     1      96.904 101.601  95.765  1.00  0.00     0.159 HD
ATOM     23  H   UNL     1      96.949 102.926  96.895  1.00  0.00     0.159 HD
ENDBRANCH   7  19
TORSDOF 1
ENDMDL
MODEL 8
REMARK VINA RESULT:    -7.138      3.629      5.053
REMARK INTER + INTRA:          -7.671
REMARK INTER:                  -7.568
REMARK INTRA:                  -0.104
REMARK UNBOUND:                -0.117
REMARK SMILES CN1C[C@H](C(N)=O)C=C2c3cccc4[nH]cc(c34)C[C@H]21
REMARK SMILES IDX 2 1 15 2 20 3 9 4 19 5 3 6 4 7 17 8 10 9 18 10 8 11 14 12
REMARK SMILES IDX 1 13 16 14 11 15 13 16 12 17 5 19 7 20 6 21
REMARK H PARENT 15 18 6 22 6 23
ROOT
ATOM      1  N   UNL     1      97.412 105.886  94.693  1.00  0.00    -0.298 NA
ATOM      2  N   UNL     1      99.255 110.601  97.941  1.00  0.00    -0.361 N 
ATOM      3  C   UNL     1      98.286 106.784  95.512  1.00  0.00     0.091 C 
ATOM      4  C   UNL     1      98.686 106.159  96.889  1.00  0.00    -0.026 C 
ATOM      5  C   UNL     1      97.609 108.201  95.660  1.00  0.00     0.061 C 
ATOM      6  C   UNL     1      97.883 104.488  94.782  1.00  0.00     0.102 C 
ATOM      7  C   UNL     1      97.752 103.951  96.217  1.00  0.00     0.115 C 
ATOM      8  C   UNL     1      98.341 109.041  96.650  1.00  0.00    -0.020 A 
ATOM      9  C   UNL     1      99.371 107.052  97.851  1.00  0.00    -0.011 A 
ATOM     10  C   UNL     1      99.134 108.416  97.636  1.00  0.00     0.010 A 
ATOM     11  C   UNL     1      98.408 104.880  97.207  1.00  0.00    -0.007 C 
ATOM     12  C   UNL     1      99.700 109.394  98.436  1.00  0.00     0.046 A 
ATOM     13  C   UNL     1      97.384 106.298  93.287  1.00  0.00     0.106 C 
ATOM     14  C   UNL     1      98.428 110.399  96.856  1.00  0.00     0.087 A 
ATOM     15  C   UNL     1     100.217 106.709  98.914  1.00  0.00     0.009 A 
ATOM     16  C   UNL     1     100.540 109.068  99.503  1.00  0.00     0.027 A 
ATOM     17  C   UNL     1     100.787 107.703  99.721  1.00  0.00     0.003 A 
ATOM     18  H   UNL     1      99.500 111.503  98.324  1.00  0.00     0.166 HD
ENDROOT
BRANCH   7  19
ATOM     19  C   UNL     1      98.378 102.557  96.310  1.00  0.00     0.225 C 
ATOM     20  O   UNL     1      98.796 102.041  97.340  1.00  0.00    -0.275 OA
ATOM     21  N   UNL     1      98.446 101.873  95.124  1.00  0.00    -0.369 N 
ATOM     22  H   UNL     1      98.896 100.967  95.135  1.00  0.00     0.159 HD
ATOM     23  H   UNL     1      98.234 102.303  94.235  1.00  0.00     0.159 HD
ENDBRANCH   7  19
TORSDOF 1
ENDMDL
MODEL 9
REMARK VINA RESULT:    -7.133      7.540      9.338
REMARK INTER + INTRA:          -7.667
REMARK INTER:                  -7.559
REMARK INTRA:                  -0.107
REMARK UNBOUND:                -0.117
REMARK SMILES CN1C[C@H](C(N)=O)C=C2c3cccc4[nH]cc(c34)C[C@H]21
REMARK SMILES IDX 2 1 15 2 20 3 9 4 19 5 3 6 4 7 17 8 10 9 18 10 8 11 14 12
REMARK SMILES IDX 1 13 16 14 11 15 13 16 12 17 5 19 7 20 6 21
REMARK H PARENT 15 18 6 22 6 23
ROOT
ATOM      1  N   UNL     1      97.387 113.873  95.037  1.00  0.00    -0.298 NA
ATOM      2  N   UNL     1      98.820 109.502  98.912  1.00  0.00    -0.361 N 
ATOM      3  C   UNL     1      97.371 112.562  95.758  1.00  0.00     0.091 C 
ATOM      4  C   UNL     1      96.048 112.318  96.556  1.00  0.00    -0.026 C 
ATOM      5  C   UNL     1      98.659 112.429  96.658  1.00  0.00     0.061 C 
ATOM      6  C   UNL     1      96.071 114.138  94.420  1.00  0.00     0.102 C 
ATOM      7  C   UNL     1      94.980 114.300  95.492  1.00  0.00     0.115 C 
ATOM      8  C   UNL     1      98.564 111.241  97.554  1.00  0.00    -0.020 A 
ATOM      9  C   UNL     1      96.025 111.149  97.465  1.00  0.00    -0.011 A 
ATOM     10  C   UNL     1      97.293 110.719  97.878  1.00  0.00     0.010 A 
ATOM     11  C   UNL     1      94.983 113.135  96.449  1.00  0.00    -0.007 C 
ATOM     12  C   UNL     1      97.461 109.635  98.722  1.00  0.00     0.046 A 
ATOM     13  C   UNL     1      98.422 113.904  93.999  1.00  0.00     0.106 C 
ATOM     14  C   UNL     1      99.500 110.473  98.207  1.00  0.00     0.087 A 
ATOM     15  C   UNL     1      94.920 110.432  97.941  1.00  0.00     0.009 A 
ATOM     16  C   UNL     1      96.369 108.914  99.209  1.00  0.00     0.027 A 
ATOM     17  C   UNL     1      95.095 109.337  98.797  1.00  0.00     0.003 A 
ATOM     18  H   UNL     1      99.251 108.794  99.488  1.00  0.00     0.166 HD
ENDROOT
BRANCH   7  19
ATOM     19  C   UNL     1      93.609 114.430  94.825  1.00  0.00     0.225 C 
ATOM     20  O   UNL     1      92.627 114.960  95.332  1.00  0.00    -0.275 OA
ATOM     21  N   UNL     1      93.528 113.903  93.563  1.00  0.00    -0.369 N 
ATOM     22  H   UNL     1      92.625 113.926  93.106  1.00  0.00     0.159 HD
ATOM     23  H   UNL     1      94.267 113.347  93.157  1.00  0.00     0.159 HD
ENDBRANCH   7  19
TORSDOF 1
ENDMDL
MODEL 10
REMARK VINA RESULT:    -7.116      3.938      5.557
REMARK INTER + INTRA:          -7.648
REMARK INTER:                  -7.544
REMARK INTRA:                  -0.104
REMARK UNBOUND:                -0.117
REMARK SMILES CN1C[C@H](C(N)=O)C=C2c3cccc4[nH]cc(c34)C[C@H]21
REMARK SMILES IDX 2 1 15 2 20 3 9 4 19 5 3 6 4 7 17 8 10 9 18 10 8 11 14 12
REMARK SMILES IDX 1 13 16 14 11 15 13 16 12 17 5 19 7 20 6 21
REMARK H PARENT 15 18 6 22 6 23
ROOT
ATOM      1  N   UNL     1     100.387 106.718  98.325  1.00  0.00    -0.298 NA
ATOM      2  N   UNL     1      96.999 111.523  99.595  1.00  0.00    -0.361 N 
ATOM      3  C   UNL     1      99.248 107.554  98.819  1.00  0.00     0.091 C 
ATOM      4  C   UNL     1      97.914 107.288  98.049  1.00  0.00    -0.026 C 
ATOM      5  C   UNL     1      99.660 109.077  98.816  1.00  0.00     0.061 C 
ATOM      6  C   UNL     1      99.933 105.339  98.053  1.00  0.00     0.102 C 
ATOM      7  C   UNL     1      98.908 105.311  96.907  1.00  0.00     0.115 C 
ATOM      8  C   UNL     1      98.482 109.949  99.087  1.00  0.00    -0.020 A 
ATOM      9  C   UNL     1      96.790 108.213  98.324  1.00  0.00    -0.011 A 
ATOM     10  C   UNL     1      97.185 109.461  98.822  1.00  0.00     0.010 A 
ATOM     11  C   UNL     1      97.785 106.285  97.160  1.00  0.00    -0.007 C 
ATOM     12  C   UNL     1      96.266 110.446  99.142  1.00  0.00     0.046 A 
ATOM     13  C   UNL     1     101.488 106.682  99.293  1.00  0.00     0.106 C 
ATOM     14  C   UNL     1      98.347 111.232  99.566  1.00  0.00     0.087 A 
ATOM     15  C   UNL     1      95.417 107.992  98.164  1.00  0.00     0.009 A 
ATOM     16  C   UNL     1      94.894 110.244  98.982  1.00  0.00     0.027 A 
ATOM     17  C   UNL     1      94.491 108.993  98.488  1.00  0.00     0.003 A 
ATOM     18  H   UNL     1      96.600 112.399  99.901  1.00  0.00     0.166 HD
ENDROOT
BRANCH   7  19
ATOM     19  C   UNL     1      98.350 103.895  96.743  1.00  0.00     0.225 C 
ATOM     20  O   UNL     1      97.241 103.624  96.296  1.00  0.00    -0.275 OA
ATOM     21  N   UNL     1      99.195 102.891  97.134  1.00  0.00    -0.369 N 
ATOM     22  H   UNL     1      98.845 101.942  97.086  1.00  0.00     0.159 HD
ATOM     23  H   UNL     1     100.060 103.068  97.624  1.00  0.00     0.159 HD
ENDBRANCH   7  19
TORSDOF 1
ENDMDL
MODEL 11
REMARK VINA RESULT:    -7.114      1.934      3.614
REMARK INTER + INTRA:          -7.646
REMARK INTER:                  -7.543
REMARK INTRA:                  -0.103
REMARK UNBOUND:                -0.117
REMARK SMILES CN1C[C@H](C(N)=O)C=C2c3cccc4[nH]cc(c34)C[C@H]21
REMARK SMILES IDX 2 1 15 2 20 3 9 4 19 5 3 6 4 7 17 8 10 9 18 10 8 11 14 12
REMARK SMILES IDX 1 13 16 14 11 15 13 16 12 17 5 19 7 20 6 21
REMARK H PARENT 15 18 6 22 6 23
ROOT
ATOM      1  N   UNL     1      98.977 104.307  97.140  1.00  0.00    -0.298 NA
ATOM      2  N   UNL     1     100.299 102.079 102.568  1.00  0.00    -0.361 N 
ATOM      3  C   UNL     1      99.083 104.177  98.627  1.00  0.00     0.091 C 
ATOM      4  C   UNL     1      99.987 105.276  99.275  1.00  0.00    -0.026 C 
ATOM      5  C   UNL     1      99.536 102.714  99.006  1.00  0.00     0.061 C 
ATOM      6  C   UNL     1      98.835 105.727  96.755  1.00  0.00     0.102 C 
ATOM      7  C   UNL     1     100.095 106.527  97.125  1.00  0.00     0.115 C 
ATOM      8  C   UNL     1      99.865 102.617 100.457  1.00  0.00    -0.020 A 
ATOM      9  C   UNL     1     100.320 105.105 100.708  1.00  0.00    -0.011 A 
ATOM     10  C   UNL     1     100.224 103.784 101.164  1.00  0.00     0.010 A 
ATOM     11  C   UNL     1     100.465 106.320  98.572  1.00  0.00    -0.007 C 
ATOM     12  C   UNL     1     100.491 103.441 102.479  1.00  0.00     0.046 A 
ATOM     13  C   UNL     1      97.839 103.548  96.613  1.00  0.00     0.106 C 
ATOM     14  C   UNL     1      99.919 101.568 101.345  1.00  0.00     0.087 A 
ATOM     15  C   UNL     1     100.696 106.079 101.641  1.00  0.00     0.009 A 
ATOM     16  C   UNL     1     100.873 104.400 103.420  1.00  0.00     0.027 A 
ATOM     17  C   UNL     1     100.967 105.727 102.970  1.00  0.00     0.003 A 
ATOM     18  H   UNL     1     100.423 101.537 103.411  1.00  0.00     0.166 HD
ENDROOT
BRANCH   7  19
ATOM     19  C   UNL     1      99.865 108.016  96.848  1.00  0.00     0.225 C 
ATOM     20  O   UNL     1     100.685 108.904  97.054  1.00  0.00    -0.275 OA
ATOM     21  N   UNL     1      98.637 108.324  96.326  1.00  0.00    -0.369 N 
ATOM     22  H   UNL     1      98.427 109.302  96.174  1.00  0.00     0.159 HD
ATOM     23  H   UNL     1      97.888 107.649  96.261  1.00  0.00     0.159 HD
ENDBRANCH   7  19
TORSDOF 1
ENDMDL
MODEL 12
REMARK VINA RESULT:    -7.082      3.140      5.364
REMARK INTER + INTRA:          -7.612
REMARK INTER:                  -7.504
REMARK INTRA:                  -0.108
REMARK UNBOUND:                -0.117
REMARK SMILES CN1C[C@H](C(N)=O)C=C2c3cccc4[nH]cc(c34)C[C@H]21
REMARK SMILES IDX 2 1 15 2 20 3 9 4 19 5 3 6 4 7 17 8 10 9 18 10 8 11 14 12
REMARK SMILES IDX 1 13 16 14 11 15 13 16 12 17 5 19 7 20 6 21
REMARK H PARENT 15 18 6 22 6 23
ROOT
ATOM      1  N   UNL     1      98.021 108.049  96.165  1.00  0.00    -0.298 NA
ATOM      2  N   UNL     1      98.350 102.104  97.015  1.00  0.00    -0.361 N 
ATOM      3  C   UNL     1      98.055 106.718  96.849  1.00  0.00     0.091 C 
ATOM      4  C   UNL     1      99.300 106.540  97.778  1.00  0.00    -0.026 C 
ATOM      5  C   UNL     1      97.919 105.563  95.784  1.00  0.00     0.061 C 
ATOM      6  C   UNL     1      98.429 109.120  97.098  1.00  0.00     0.102 C 
ATOM      7  C   UNL     1      99.894 108.945  97.531  1.00  0.00     0.115 C 
ATOM      8  C   UNL     1      98.172 104.232  96.405  1.00  0.00    -0.020 A 
ATOM      9  C   UNL     1      99.529 105.185  98.331  1.00  0.00    -0.011 A 
ATOM     10  C   UNL     1      98.938 104.156  97.588  1.00  0.00     0.010 A 
ATOM     11  C   UNL     1     100.144 107.553  98.053  1.00  0.00    -0.007 C 
ATOM     12  C   UNL     1      99.043 102.827  97.963  1.00  0.00     0.046 A 
ATOM     13  C   UNL     1      96.686 108.349  95.638  1.00  0.00     0.106 C 
ATOM     14  C   UNL     1      97.817 102.948  96.063  1.00  0.00     0.087 A 
ATOM     15  C   UNL     1     100.235 104.819  99.484  1.00  0.00     0.009 A 
ATOM     16  C   UNL     1      99.748 102.445  99.106  1.00  0.00     0.027 A 
ATOM     17  C   UNL     1     100.340 103.472  99.858  1.00  0.00     0.003 A 
ATOM     18  H   UNL     1      98.252 101.099  97.021  1.00  0.00     0.166 HD
ENDROOT
BRANCH   7  19
ATOM     19  C   UNL     1     100.245 109.980  98.604  1.00  0.00     0.225 C 
ATOM     20  O   UNL     1     101.382 110.245  98.979  1.00  0.00    -0.275 OA
ATOM     21  N   UNL     1      99.173 110.634  99.150  1.00  0.00    -0.369 N 
ATOM     22  H   UNL     1      99.359 111.291  99.897  1.00  0.00     0.159 HD
ATOM     23  H   UNL     1      98.218 110.359  98.968  1.00  0.00     0.159 HD
ENDBRANCH   7  19
TORSDOF 1
ENDMDL
MODEL 13
REMARK VINA RESULT:    -7.071      4.427      6.537
REMARK INTER + INTRA:          -7.601
REMARK INTER:                  -7.498
REMARK INTRA:                  -0.103
REMARK UNBOUND:                -0.117
REMARK SMILES CN1C[C@H](C(N)=O)C=C2c3cccc4[nH]cc(c34)C[C@H]21
REMARK SMILES IDX 2 1 15 2 20 3 9 4 19 5 3 6 4 7 17 8 10 9 18 10 8 11 14 12
REMARK SMILES IDX 1 13 16 14 11 15 13 16 12 17 5 19 7 20 6 21
REMARK H PARENT 15 18 6 22 6 23
ROOT
ATOM      1  N   UNL     1      97.565 106.092  96.325  1.00  0.00    -0.298 NA
ATOM      2  N   UNL     1      94.509 110.425  99.165  1.00  0.00    -0.361 N 
ATOM      3  C   UNL     1      97.173 107.443  96.838  1.00  0.00     0.091 C 
ATOM      4  C   UNL     1      98.214 108.042  97.840  1.00  0.00    -0.026 C 
ATOM      5  C   UNL     1      95.714 107.388  97.435  1.00  0.00     0.061 C 
ATOM      6  C   UNL     1      99.012 106.053  96.027  1.00  0.00     0.102 C 
ATOM      7  C   UNL     1      99.844 106.236  97.308  1.00  0.00     0.115 C 
ATOM      8  C   UNL     1      95.383 108.652  98.151  1.00  0.00    -0.020 A 
ATOM      9  C   UNL     1      97.814 109.274  98.558  1.00  0.00    -0.011 A 
ATOM     10  C   UNL     1      96.428 109.463  98.643  1.00  0.00     0.010 A 
ATOM     11  C   UNL     1      99.409 107.465  98.067  1.00  0.00    -0.007 C 
ATOM     12  C   UNL     1      95.876 110.566  99.272  1.00  0.00     0.046 A 
ATOM     13  C   UNL     1      96.813 105.736  95.118  1.00  0.00     0.106 C 
ATOM     14  C   UNL     1      94.198 109.265  98.487  1.00  0.00     0.087 A 
ATOM     15  C   UNL     1      98.630 110.255  99.135  1.00  0.00     0.009 A 
ATOM     16  C   UNL     1      96.677 111.549  99.857  1.00  0.00     0.027 A 
ATOM     17  C   UNL     1      98.066 111.368  99.772  1.00  0.00     0.003 A 
ATOM     18  H   UNL     1      93.835 111.079  99.536  1.00  0.00     0.166 HD
ENDROOT
BRANCH   7  19
ATOM     19  C   UNL     1     101.330 106.336  96.952  1.00  0.00     0.225 C 
ATOM     20  O   UNL     1     101.855 107.288  96.385  1.00  0.00    -0.275 OA
ATOM     21  N   UNL     1     102.087 105.256  97.324  1.00  0.00    -0.369 N 
ATOM     22  H   UNL     1     103.065 105.262  97.064  1.00  0.00     0.159 HD
ATOM     23  H   UNL     1     101.680 104.401  97.674  1.00  0.00     0.159 HD
ENDBRANCH   7  19
TORSDOF 1
ENDMDL
MODEL 14
REMARK VINA RESULT:    -7.043      3.473      4.727
REMARK INTER + INTRA:          -7.572
REMARK INTER:                  -7.471
REMARK INTRA:                  -0.101
REMARK UNBOUND:                -0.117
REMARK SMILES CN1C[C@H](C(N)=O)C=C2c3cccc4[nH]cc(c34)C[C@H]21
REMARK SMILES IDX 2 1 15 2 20 3 9 4 19 5 3 6 4 7 17 8 10 9 18 10 8 11 14 12
REMARK SMILES IDX 1 13 16 14 11 15 13 16 12 17 5 19 7 20 6 21
REMARK H PARENT 15 18 6 22 6 23
ROOT
ATOM      1  N   UNL     1      97.619 109.260  96.773  1.00  0.00    -0.298 NA
ATOM      2  N   UNL     1      99.922 104.500  99.639  1.00  0.00    -0.361 N 
ATOM      3  C   UNL     1      98.350 107.978  97.024  1.00  0.00     0.091 C 
ATOM      4  C   UNL     1      97.705 106.753  96.297  1.00  0.00    -0.026 C 
ATOM      5  C   UNL     1      98.514 107.749  98.576  1.00  0.00     0.061 C 
ATOM      6  C   UNL     1      97.208 109.350  95.357  1.00  0.00     0.102 C 
ATOM      7  C   UNL     1      96.192 108.251  95.005  1.00  0.00     0.115 C 
ATOM      8  C   UNL     1      99.035 106.382  98.861  1.00  0.00    -0.020 A 
ATOM      9  C   UNL     1      98.231 105.415  96.653  1.00  0.00    -0.011 A 
ATOM     10  C   UNL     1      98.852 105.359  97.907  1.00  0.00     0.010 A 
ATOM     11  C   UNL     1      96.704 106.890  95.407  1.00  0.00    -0.007 C 
ATOM     12  C   UNL     1      99.408 104.190  98.398  1.00  0.00     0.046 A 
ATOM     13  C   UNL     1      98.441 110.424  97.113  1.00  0.00     0.106 C 
ATOM     14  C   UNL     1      99.701 105.830  99.931  1.00  0.00     0.087 A 
ATOM     15  C   UNL     1      98.197 104.234  95.902  1.00  0.00     0.009 A 
ATOM     16  C   UNL     1      99.377 103.002  97.664  1.00  0.00     0.027 A 
ATOM     17  C   UNL     1      98.760 103.052  96.403  1.00  0.00     0.003 A 
ATOM     18  H   UNL     1     100.391 103.842 100.245  1.00  0.00     0.166 HD
ENDROOT
BRANCH   7  19
ATOM     19  C   UNL     1      95.895 108.278  93.503  1.00  0.00     0.225 C 
ATOM     20  O   UNL     1      96.736 108.169  92.618  1.00  0.00    -0.275 OA
ATOM     21  N   UNL     1      94.573 108.433  93.178  1.00  0.00    -0.369 N 
ATOM     22  H   UNL     1      94.341 108.504  92.196  1.00  0.00     0.159 HD
ATOM     23  H   UNL     1      93.866 108.654  93.865  1.00  0.00     0.159 HD
ENDBRANCH   7  19
TORSDOF 1
ENDMDL
MODEL 15
REMARK VINA RESULT:    -7.041      8.372     11.432
REMARK INTER + INTRA:          -7.569
REMARK INTER:                  -7.447
REMARK INTRA:                  -0.122
REMARK UNBOUND:                -0.117
REMARK SMILES CN1C[C@H](C(N)=O)C=C2c3cccc4[nH]cc(c34)C[C@H]21
REMARK SMILES IDX 2 1 15 2 20 3 9 4 19 5 3 6 4 7 17 8 10 9 18 10 8 11 14 12
REMARK SMILES IDX 1 13 16 14 11 15 13 16 12 17 5 19 7 20 6 21
REMARK H PARENT 15 18 6 22 6 23
ROOT
ATOM      1  N   UNL     1      98.340 111.761  96.388  1.00  0.00    -0.298 NA
ATOM      2  N   UNL     1      97.010 116.994  93.738  1.00  0.00    -0.361 N 
ATOM      3  C   UNL     1      97.589 112.992  95.987  1.00  0.00     0.091 C 
ATOM      4  C   UNL     1      96.295 112.680  95.167  1.00  0.00    -0.026 C 
ATOM      5  C   UNL     1      98.557 113.992  95.243  1.00  0.00     0.061 C 
ATOM      6  C   UNL     1      97.403 110.705  96.825  1.00  0.00     0.102 C 
ATOM      7  C   UNL     1      96.505 110.249  95.663  1.00  0.00     0.115 C 
ATOM      8  C   UNL     1      97.794 115.121  94.638  1.00  0.00    -0.020 A 
ATOM      9  C   UNL     1      95.603 113.835  94.549  1.00  0.00    -0.011 A 
ATOM     10  C   UNL     1      96.424 114.952  94.345  1.00  0.00     0.010 A 
ATOM     11  C   UNL     1      95.833 111.426  95.001  1.00  0.00    -0.007 C 
ATOM     12  C   UNL     1      95.942 116.124  93.787  1.00  0.00     0.046 A 
ATOM     13  C   UNL     1      99.292 112.039  97.467  1.00  0.00     0.106 C 
ATOM     14  C   UNL     1      98.141 116.395  94.253  1.00  0.00     0.087 A 
ATOM     15  C   UNL     1      94.261 113.949  94.167  1.00  0.00     0.009 A 
ATOM     16  C   UNL     1      94.608 116.250  93.395  1.00  0.00     0.027 A 
ATOM     17  C   UNL     1      93.778 115.136  93.600  1.00  0.00     0.003 A 
ATOM     18  H   UNL     1      96.966 117.935  93.374  1.00  0.00     0.166 HD
ENDROOT
BRANCH   7  19
ATOM     19  C   UNL     1      95.452 109.263  96.176  1.00  0.00     0.225 C 
ATOM     20  O   UNL     1      95.607 108.049  96.259  1.00  0.00    -0.275 OA
ATOM     21  N   UNL     1      94.268 109.831  96.564  1.00  0.00    -0.369 N 
ATOM     22  H   UNL     1      93.528 109.208  96.864  1.00  0.00     0.159 HD
ATOM     23  H   UNL     1      94.049 110.802  96.394  1.00  0.00     0.159 HD
ENDBRANCH   7  19
TORSDOF 1
ENDMDL
MODEL 16
REMARK VINA RESULT:    -7.035      6.066      8.626
REMARK INTER + INTRA:          -7.563
REMARK INTER:                  -7.459
REMARK INTRA:                  -0.104
REMARK UNBOUND:                -0.117
REMARK SMILES CN1C[C@H](C(N)=O)C=C2c3cccc4[nH]cc(c34)C[C@H]21
REMARK SMILES IDX 2 1 15 2 20 3 9 4 19 5 3 6 4 7 17 8 10 9 18 10 8 11 14 12
REMARK SMILES IDX 1 13 16 14 11 15 13 16 12 17 5 19 7 20 6 21
REMARK H PARENT 15 18 6 22 6 23
ROOT
ATOM      1  N   UNL     1      96.976 111.670  97.128  1.00  0.00    -0.298 NA
ATOM      2  N   UNL     1      99.083 106.297  95.434  1.00  0.00    -0.361 N 
ATOM      3  C   UNL     1      97.472 110.555  96.262  1.00  0.00     0.091 C 
ATOM      4  C   UNL     1      96.387 110.021  95.271  1.00  0.00    -0.026 C 
ATOM      5  C   UNL     1      98.093 109.415  97.158  1.00  0.00     0.061 C 
ATOM      6  C   UNL     1      96.145 112.604  96.341  1.00  0.00     0.102 C 
ATOM      7  C   UNL     1      94.869 111.913  95.832  1.00  0.00     0.115 C 
ATOM      8  C   UNL     1      98.391 108.201  96.346  1.00  0.00    -0.020 A 
ATOM      9  C   UNL     1      96.718 108.786  94.523  1.00  0.00    -0.011 A 
ATOM     10  C   UNL     1      97.695 107.991  95.136  1.00  0.00     0.010 A 
ATOM     11  C   UNL     1      95.197 110.631  95.110  1.00  0.00    -0.007 C 
ATOM     12  C   UNL     1      98.133 106.804  94.573  1.00  0.00     0.046 A 
ATOM     13  C   UNL     1      98.084 112.409  97.742  1.00  0.00     0.106 C 
ATOM     14  C   UNL     1      99.247 107.138  96.515  1.00  0.00     0.087 A 
ATOM     15  C   UNL     1      96.196 108.334  93.305  1.00  0.00     0.009 A 
ATOM     16  C   UNL     1      97.618 106.337  93.362  1.00  0.00     0.027 A 
ATOM     17  C   UNL     1      96.641 107.131  92.740  1.00  0.00     0.003 A 
ATOM     18  H   UNL     1      99.583 105.432  95.290  1.00  0.00     0.166 HD
ENDROOT
BRANCH   7  19
ATOM     19  C   UNL     1      94.101 112.858  94.904  1.00  0.00     0.225 C 
ATOM     20  O   UNL     1      93.354 112.501  94.000  1.00  0.00    -0.275 OA
ATOM     21  N   UNL     1      94.293 114.192  95.149  1.00  0.00    -0.369 N 
ATOM     22  H   UNL     1      93.840 114.849  94.526  1.00  0.00     0.159 HD
ATOM     23  H   UNL     1      94.992 114.532  95.793  1.00  0.00     0.159 HD
ENDBRANCH   7  19
TORSDOF 1
ENDMDL
MODEL 17
REMARK VINA RESULT:    -6.988      5.309      7.453
REMARK INTER + INTRA:          -7.513
REMARK INTER:                  -7.395
REMARK INTRA:                  -0.118
REMARK UNBOUND:                -0.117
REMARK SMILES CN1C[C@H](C(N)=O)C=C2c3cccc4[nH]cc(c34)C[C@H]21
REMARK SMILES IDX 2 1 15 2 20 3 9 4 19 5 3 6 4 7 17 8 10 9 18 10 8 11 14 12
REMARK SMILES IDX 1 13 16 14 11 15 13 16 12 17 5 19 7 20 6 21
REMARK H PARENT 15 18 6 22 6 23
ROOT
ATOM      1  N   UNL     1      98.054 105.864  94.478  1.00  0.00    -0.298 NA
ATOM      2  N   UNL     1      95.950 109.492  98.788  1.00  0.00    -0.361 N 
ATOM      3  C   UNL     1      97.118 106.717  95.275  1.00  0.00     0.091 C 
ATOM      4  C   UNL     1      96.627 107.980  94.496  1.00  0.00    -0.026 C 
ATOM      5  C   UNL     1      97.771 107.073  96.666  1.00  0.00     0.061 C 
ATOM      6  C   UNL     1      97.589 105.758  93.079  1.00  0.00     0.102 C 
ATOM      7  C   UNL     1      97.624 107.127  92.380  1.00  0.00     0.115 C 
ATOM      8  C   UNL     1      96.964 108.098  97.387  1.00  0.00    -0.020 A 
ATOM      9  C   UNL     1      95.869 108.988  95.273  1.00  0.00    -0.011 A 
ATOM     10  C   UNL     1      96.110 108.948  96.652  1.00  0.00     0.010 A 
ATOM     11  C   UNL     1      96.892 108.168  93.190  1.00  0.00    -0.007 C 
ATOM     12  C   UNL     1      95.480 109.813  97.532  1.00  0.00     0.046 A 
ATOM     13  C   UNL     1      98.177 104.519  95.049  1.00  0.00     0.106 C 
ATOM     14  C   UNL     1      96.852 108.452  98.712  1.00  0.00     0.087 A 
ATOM     15  C   UNL     1      94.954 109.942  94.810  1.00  0.00     0.009 A 
ATOM     16  C   UNL     1      94.571 110.773  97.085  1.00  0.00     0.027 A 
ATOM     17  C   UNL     1      94.320 110.816  95.704  1.00  0.00     0.003 A 
ATOM     18  H   UNL     1      95.671 109.958  99.640  1.00  0.00     0.166 HD
ENDROOT
BRANCH   7  19
ATOM     19  C   UNL     1      97.004 107.015  90.985  1.00  0.00     0.225 C 
ATOM     20  O   UNL     1      97.547 107.370  89.944  1.00  0.00    -0.275 OA
ATOM     21  N   UNL     1      95.751 106.464  90.951  1.00  0.00    -0.369 N 
ATOM     22  H   UNL     1      95.287 106.416  90.053  1.00  0.00     0.159 HD
ATOM     23  H   UNL     1      95.216 106.277  91.787  1.00  0.00     0.159 HD
ENDBRANCH   7  19
TORSDOF 1
ENDMDL
MODEL 18
REMARK VINA RESULT:    -6.956      4.839      6.945
REMARK INTER + INTRA:          -7.480
REMARK INTER:                  -7.358
REMARK INTRA:                  -0.122
REMARK UNBOUND:                -0.117
REMARK SMILES CN1C[C@H](C(N)=O)C=C2c3cccc4[nH]cc(c34)C[C@H]21
REMARK SMILES IDX 2 1 15 2 20 3 9 4 19 5 3 6 4 7 17 8 10 9 18 10 8 11 14 12
REMARK SMILES IDX 1 13 16 14 11 15 13 16 12 17 5 19 7 20 6 21
REMARK H PARENT 15 18 6 22 6 23
ROOT
ATOM      1  N   UNL     1      98.369 106.393  95.057  1.00  0.00    -0.298 NA
ATOM      2  N   UNL     1      99.829 110.674  99.021  1.00  0.00    -0.361 N 
ATOM      3  C   UNL     1      98.235 107.484  96.073  1.00  0.00     0.091 C 
ATOM      4  C   UNL     1      97.557 108.772  95.502  1.00  0.00    -0.026 C 
ATOM      5  C   UNL     1      99.638 107.776  96.734  1.00  0.00     0.061 C 
ATOM      6  C   UNL     1      97.145 106.302  94.234  1.00  0.00     0.102 C 
ATOM      7  C   UNL     1      96.941 107.581  93.404  1.00  0.00     0.115 C 
ATOM      8  C   UNL     1      99.584 109.000  97.581  1.00  0.00    -0.020 A 
ATOM      9  C   UNL     1      97.572 109.972  96.370  1.00  0.00    -0.011 A 
ATOM     10  C   UNL     1      98.589 109.970  97.333  1.00  0.00     0.010 A 
ATOM     11  C   UNL     1      97.002 108.810  94.276  1.00  0.00    -0.007 C 
ATOM     12  C   UNL     1      98.747 111.009  98.235  1.00  0.00     0.046 A 
ATOM     13  C   UNL     1      98.622 105.096  95.690  1.00  0.00     0.106 C 
ATOM     14  C   UNL     1     100.345 109.456  98.632  1.00  0.00     0.087 A 
ATOM     15  C   UNL     1      96.708 111.074  96.353  1.00  0.00     0.009 A 
ATOM     16  C   UNL     1      97.898 112.117  98.227  1.00  0.00     0.027 A 
ATOM     17  C   UNL     1      96.873 112.125  97.267  1.00  0.00     0.003 A 
ATOM     18  H   UNL     1     100.190 111.245  99.772  1.00  0.00     0.166 HD
ENDROOT
BRANCH   7  19
ATOM     19  C   UNL     1      95.597 107.519  92.675  1.00  0.00     0.225 C 
ATOM     20  O   UNL     1      95.350 106.797  91.714  1.00  0.00    -0.275 OA
ATOM     21  N   UNL     1      94.628 108.348  93.176  1.00  0.00    -0.369 N 
ATOM     22  H   UNL     1      93.740 108.372  92.692  1.00  0.00     0.159 HD
ATOM     23  H   UNL     1      94.821 109.048  93.877  1.00  0.00     0.159 HD
ENDBRANCH   7  19
TORSDOF 1
ENDMDL
MODEL 19
REMARK VINA RESULT:    -6.891      3.472      5.012
REMARK INTER + INTRA:          -7.411
REMARK INTER:                  -7.289
REMARK INTRA:                  -0.122
REMARK UNBOUND:                -0.117
REMARK SMILES CN1C[C@H](C(N)=O)C=C2c3cccc4[nH]cc(c34)C[C@H]21
REMARK SMILES IDX 2 1 15 2 20 3 9 4 19 5 3 6 4 7 17 8 10 9 18 10 8 11 14 12
REMARK SMILES IDX 1 13 16 14 11 15 13 16 12 17 5 19 7 20 6 21
REMARK H PARENT 15 18 6 22 6 23
ROOT
ATOM      1  N   UNL     1      98.662 109.148  97.761  1.00  0.00    -0.298 NA
ATOM      2  N   UNL     1     100.579 103.480  98.369  1.00  0.00    -0.361 N 
ATOM      3  C   UNL     1      99.006 107.729  97.432  1.00  0.00     0.091 C 
ATOM      4  C   UNL     1      97.757 106.867  97.056  1.00  0.00    -0.026 C 
ATOM      5  C   UNL     1      99.852 107.098  98.604  1.00  0.00     0.061 C 
ATOM      6  C   UNL     1      97.642 109.662  96.822  1.00  0.00     0.102 C 
ATOM      7  C   UNL     1      96.317 108.897  96.974  1.00  0.00     0.115 C 
ATOM      8  C   UNL     1     100.019 105.629  98.410  1.00  0.00    -0.020 A 
ATOM      9  C   UNL     1      97.971 105.408  96.920  1.00  0.00    -0.011 A 
ATOM     10  C   UNL     1      99.090 104.927  97.613  1.00  0.00     0.010 A 
ATOM     11  C   UNL     1      96.536 107.408  96.882  1.00  0.00    -0.007 C 
ATOM     12  C   UNL     1      99.446 103.589  97.591  1.00  0.00     0.046 A 
ATOM     13  C   UNL     1      99.843 110.014  97.712  1.00  0.00     0.106 C 
ATOM     14  C   UNL     1     100.936 104.713  98.872  1.00  0.00     0.087 A 
ATOM     15  C   UNL     1      97.220 104.477  96.193  1.00  0.00     0.009 A 
ATOM     16  C   UNL     1      98.703 102.648  96.875  1.00  0.00     0.027 A 
ATOM     17  C   UNL     1      97.583 103.124  96.175  1.00  0.00     0.003 A 
ATOM     18  H   UNL     1     101.072 102.616  98.545  1.00  0.00     0.166 HD
ENDROOT
BRANCH   7  19
ATOM     19  C   UNL     1      95.329 109.350  95.895  1.00  0.00     0.225 C 
ATOM     20  O   UNL     1      94.577 110.314  95.992  1.00  0.00    -0.275 OA
ATOM     21  N   UNL     1      95.329 108.592  94.755  1.00  0.00    -0.369 N 
ATOM     22  H   UNL     1      94.656 108.829  94.037  1.00  0.00     0.159 HD
ATOM     23  H   UNL     1      95.834 107.720  94.681  1.00  0.00     0.159 HD
ENDBRANCH   7  19
TORSDOF 1
ENDMDL
MODEL 20
REMARK VINA RESULT:    -6.874      2.595      5.345
REMARK INTER + INTRA:          -7.393
REMARK INTER:                  -7.287
REMARK INTRA:                  -0.106
REMARK UNBOUND:                -0.117
REMARK SMILES CN1C[C@H](C(N)=O)C=C2c3cccc4[nH]cc(c34)C[C@H]21
REMARK SMILES IDX 2 1 15 2 20 3 9 4 19 5 3 6 4 7 17 8 10 9 18 10 8 11 14 12
REMARK SMILES IDX 1 13 16 14 11 15 13 16 12 17 5 19 7 20 6 21
REMARK H PARENT 15 18 6 22 6 23
ROOT
ATOM      1  N   UNL     1     100.809 105.424 100.322  1.00  0.00    -0.298 NA
ATOM      2  N   UNL     1      98.987 110.365  97.417  1.00  0.00    -0.361 N 
ATOM      3  C   UNL     1      99.934 106.389  99.586  1.00  0.00     0.091 C 
ATOM      4  C   UNL     1      99.475 105.857  98.189  1.00  0.00    -0.026 C 
ATOM      5  C   UNL     1     100.642 107.796  99.499  1.00  0.00     0.061 C 
ATOM      6  C   UNL     1     100.301 104.045 100.167  1.00  0.00     0.102 C 
ATOM      7  C   UNL     1     100.374 103.591  98.700  1.00  0.00     0.115 C 
ATOM      8  C   UNL     1      99.900 108.711  98.585  1.00  0.00    -0.020 A 
ATOM      9  C   UNL     1      98.783 106.821  97.303  1.00  0.00    -0.011 A 
ATOM     10  C   UNL     1      99.062 108.164  97.589  1.00  0.00     0.010 A 
ATOM     11  C   UNL     1      99.710 104.593  97.788  1.00  0.00    -0.007 C 
ATOM     12  C   UNL     1      98.496 109.200  96.867  1.00  0.00     0.046 A 
ATOM     13  C   UNL     1     100.891 105.751 101.748  1.00  0.00     0.106 C 
ATOM     14  C   UNL     1      99.842 110.080  98.461  1.00  0.00     0.087 A 
ATOM     15  C   UNL     1      97.897 106.562  96.250  1.00  0.00     0.009 A 
ATOM     16  C   UNL     1      97.615 108.958  95.811  1.00  0.00     0.027 A 
ATOM     17  C   UNL     1      97.327 107.615  95.521  1.00  0.00     0.003 A 
ATOM     18  H   UNL     1      98.753 111.294  97.096  1.00  0.00     0.166 HD
ENDROOT
BRANCH   7  19
ATOM     19  C   UNL     1      99.710 102.220  98.546  1.00  0.00     0.225 C 
ATOM     20  O   UNL     1      98.860 101.940  97.707  1.00  0.00    -0.275 OA
ATOM     21  N   UNL     1     100.138 101.268  99.432  1.00  0.00    -0.369 N 
ATOM     22  H   UNL     1      99.689 100.361  99.395  1.00  0.00     0.159 HD
ATOM     23  H   UNL     1     100.736 101.484 100.217  1.00  0.00     0.159 HD
ENDBRANCH   7  19
TORSDOF 1
ENDMDL
