MODEL 1
REMARK VINA RESULT:    -8.528      0.000      0.000
REMARK INTER + INTRA:          -9.121
REMARK INTER:                  -9.027
REMARK INTRA:                  -0.095
REMARK UNBOUND:                -0.095
REMARK SMILES CN1C[C@H](C(N)=O)C=C2c3cccc4[nH]cc(c34)C[C@H]21
REMARK SMILES IDX 2 1 15 2 20 3 9 4 19 5 3 6 4 7 17 8 10 9 18 10 8 11 14 12
REMARK SMILES IDX 1 13 16 14 11 15 13 16 12 17 5 19 7 20 6 21
REMARK H PARENT 15 18 6 22 6 23
ROOT
ATOM      1  N   UNL     1      19.853 -24.640  87.474  1.00  0.00    -0.298 NA
ATOM      2  N   UNL     1      17.247 -25.520  82.125  1.00  0.00    -0.361 N 
ATOM      3  C   UNL     1      19.410 -25.308  86.209  1.00  0.00     0.091 C 
ATOM      4  C   UNL     1      20.601 -25.687  85.269  1.00  0.00    -0.026 C 
ATOM      5  C   UNL     1      18.322 -24.422  85.488  1.00  0.00     0.061 C 
ATOM      6  C   UNL     1      21.060 -25.301  88.011  1.00  0.00     0.102 C 
ATOM      7  C   UNL     1      22.251 -25.139  87.051  1.00  0.00     0.115 C 
ATOM      8  C   UNL     1      18.027 -24.946  84.124  1.00  0.00    -0.020 A 
ATOM      9  C   UNL     1      20.251 -26.159  83.909  1.00  0.00    -0.011 A 
ATOM     10  C   UNL     1      18.989 -25.742  83.466  1.00  0.00     0.010 A 
ATOM     11  C   UNL     1      21.886 -25.574  85.654  1.00  0.00    -0.007 C 
ATOM     12  C   UNL     1      18.495 -26.097  82.222  1.00  0.00     0.046 A 
ATOM     13  C   UNL     1      18.798 -24.661  88.491  1.00  0.00     0.106 C 
ATOM     14  C   UNL     1      16.952 -24.818  83.275  1.00  0.00     0.087 A 
ATOM     15  C   UNL     1      21.002 -26.960  83.041  1.00  0.00     0.009 A 
ATOM     16  C   UNL     1      19.235 -26.891  81.343  1.00  0.00     0.027 A 
ATOM     17  C   UNL     1      20.499 -27.316  81.782  1.00  0.00     0.003 A 
ATOM     18  H   UNL     1      16.639 -25.601  81.322  1.00  0.00     0.166 HD
ENDROOT
BRANCH   7  19
ATOM     19  C   UNL     1      23.444 -25.952  87.561  1.00  0.00     0.225 C 
ATOM     20  O   UNL     1      23.363 -26.974  88.232  1.00  0.00    -0.275 OA
ATOM     21  N   UNL     1      24.673 -25.460  87.207  1.00  0.00    -0.369 N 
ATOM     22  H   UNL     1      25.488 -25.941  87.565  1.00  0.00     0.159 HD
ATOM     23  H   UNL     1      24.792 -24.558  86.769  1.00  0.00     0.159 HD
ENDBRANCH   7  19
TORSDOF 1
ENDMDL
MODEL 2
REMARK VINA RESULT:    -8.393      2.406      5.380
REMARK INTER + INTRA:          -8.978
REMARK INTER:                  -8.880
REMARK INTRA:                  -0.099
REMARK UNBOUND:                -0.095
REMARK SMILES CN1C[C@H](C(N)=O)C=C2c3cccc4[nH]cc(c34)C[C@H]21
REMARK SMILES IDX 2 1 15 2 20 3 9 4 19 5 3 6 4 7 17 8 10 9 18 10 8 11 14 12
REMARK SMILES IDX 1 13 16 14 11 15 13 16 12 17 5 19 7 20 6 21
REMARK H PARENT 15 18 6 22 6 23
ROOT
ATOM      1  N   UNL     1      17.883 -25.692  83.614  1.00  0.00    -0.298 NA
ATOM      2  N   UNL     1      19.844 -24.504  89.174  1.00  0.00    -0.361 N 
ATOM      3  C   UNL     1      18.706 -25.138  84.735  1.00  0.00     0.091 C 
ATOM      4  C   UNL     1      20.175 -25.674  84.738  1.00  0.00    -0.026 C 
ATOM      5  C   UNL     1      17.968 -25.374  86.109  1.00  0.00     0.061 C 
ATOM      6  C   UNL     1      18.674 -25.738  82.367  1.00  0.00     0.102 C 
ATOM      7  C   UNL     1      19.855 -26.715  82.498  1.00  0.00     0.115 C 
ATOM      8  C   UNL     1      18.858 -25.037  87.256  1.00  0.00    -0.020 A 
ATOM      9  C   UNL     1      21.000 -25.348  85.924  1.00  0.00    -0.011 A 
ATOM     10  C   UNL     1      20.258 -25.057  87.075  1.00  0.00     0.010 A 
ATOM     11  C   UNL     1      20.672 -26.416  83.730  1.00  0.00    -0.007 C 
ATOM     12  C   UNL     1      20.865 -24.722  88.274  1.00  0.00     0.046 A 
ATOM     13  C   UNL     1      16.673 -24.895  83.389  1.00  0.00     0.106 C 
ATOM     14  C   UNL     1      18.620 -24.693  88.567  1.00  0.00     0.087 A 
ATOM     15  C   UNL     1      22.395 -25.284  86.028  1.00  0.00     0.009 A 
ATOM     16  C   UNL     1      22.255 -24.660  88.395  1.00  0.00     0.027 A 
ATOM     17  C   UNL     1      23.005 -24.947  87.244  1.00  0.00     0.003 A 
ATOM     18  H   UNL     1      19.979 -24.246  90.141  1.00  0.00     0.166 HD
ENDROOT
BRANCH   7  19
ATOM     19  C   UNL     1      20.737 -26.635  81.249  1.00  0.00     0.225 C 
ATOM     20  O   UNL     1      20.688 -25.743  80.410  1.00  0.00    -0.275 OA
ATOM     21  N   UNL     1      21.636 -27.659  81.110  1.00  0.00    -0.369 N 
ATOM     22  H   UNL     1      22.205 -27.669  80.273  1.00  0.00     0.159 HD
ATOM     23  H   UNL     1      21.625 -28.477  81.702  1.00  0.00     0.159 HD
ENDBRANCH   7  19
TORSDOF 1
ENDMDL
MODEL 3
REMARK VINA RESULT:    -8.316      2.895      6.602
REMARK INTER + INTRA:          -8.897
REMARK INTER:                  -8.775
REMARK INTRA:                  -0.123
REMARK UNBOUND:                -0.095
REMARK SMILES CN1C[C@H](C(N)=O)C=C2c3cccc4[nH]cc(c34)C[C@H]21
REMARK SMILES IDX 2 1 15 2 20 3 9 4 19 5 3 6 4 7 17 8 10 9 18 10 8 11 14 12
REMARK SMILES IDX 1 13 16 14 11 15 13 16 12 17 5 19 7 20 6 21
REMARK H PARENT 15 18 6 22 6 23
ROOT
ATOM      1  N   UNL     1      19.284 -26.451  81.813  1.00  0.00    -0.298 NA
ATOM      2  N   UNL     1      21.517 -25.250  87.267  1.00  0.00    -0.361 N 
ATOM      3  C   UNL     1      19.377 -26.287  83.298  1.00  0.00     0.091 C 
ATOM      4  C   UNL     1      18.438 -25.167  83.850  1.00  0.00    -0.026 C 
ATOM      5  C   UNL     1      20.883 -26.084  83.721  1.00  0.00     0.061 C 
ATOM      6  C   UNL     1      17.877 -26.357  81.371  1.00  0.00     0.102 C 
ATOM      7  C   UNL     1      17.305 -24.955  81.643  1.00  0.00     0.115 C 
ATOM      8  C   UNL     1      20.986 -25.697  85.157  1.00  0.00    -0.020 A 
ATOM      9  C   UNL     1      18.614 -24.791  85.272  1.00  0.00    -0.011 A 
ATOM     10  C   UNL     1      19.878 -25.096  85.792  1.00  0.00     0.010 A 
ATOM     11  C   UNL     1      17.523 -24.548  83.078  1.00  0.00    -0.007 C 
ATOM     12  C   UNL     1      20.216 -24.822  87.107  1.00  0.00     0.046 A 
ATOM     13  C   UNL     1      19.843 -27.734  81.376  1.00  0.00     0.106 C 
ATOM     14  C   UNL     1      21.995 -25.783  86.088  1.00  0.00     0.087 A 
ATOM     15  C   UNL     1      17.691 -24.195  86.140  1.00  0.00     0.009 A 
ATOM     16  C   UNL     1      19.309 -24.223  87.983  1.00  0.00     0.027 A 
ATOM     17  C   UNL     1      18.038 -23.918  87.470  1.00  0.00     0.003 A 
ATOM     18  H   UNL     1      22.041 -25.179  88.127  1.00  0.00     0.166 HD
ENDROOT
BRANCH   7  19
ATOM     19  C   UNL     1      15.811 -24.930  81.310  1.00  0.00     0.225 C 
ATOM     20  O   UNL     1      15.338 -24.607  80.226  1.00  0.00    -0.275 OA
ATOM     21  N   UNL     1      14.984 -25.311  82.333  1.00  0.00    -0.369 N 
ATOM     22  H   UNL     1      13.987 -25.262  82.169  1.00  0.00     0.159 HD
ATOM     23  H   UNL     1      15.317 -25.460  83.275  1.00  0.00     0.159 HD
ENDBRANCH   7  19
TORSDOF 1
ENDMDL
MODEL 4
REMARK VINA RESULT:    -8.145      4.342      6.165
REMARK INTER + INTRA:          -8.716
REMARK INTER:                  -8.612
REMARK INTRA:                  -0.104
REMARK UNBOUND:                -0.095
REMARK SMILES CN1C[C@H](C(N)=O)C=C2c3cccc4[nH]cc(c34)C[C@H]21
REMARK SMILES IDX 2 1 15 2 20 3 9 4 19 5 3 6 4 7 17 8 10 9 18 10 8 11 14 12
REMARK SMILES IDX 1 13 16 14 11 15 13 16 12 17 5 19 7 20 6 21
REMARK H PARENT 15 18 6 22 6 23
ROOT
ATOM      1  N   UNL     1      22.959 -25.087  87.033  1.00  0.00    -0.298 NA
ATOM      2  N   UNL     1      19.586 -29.108  89.970  1.00  0.00    -0.361 N 
ATOM      3  C   UNL     1      22.447 -25.977  88.122  1.00  0.00     0.091 C 
ATOM      4  C   UNL     1      23.463 -27.095  88.527  1.00  0.00    -0.026 C 
ATOM      5  C   UNL     1      21.034 -26.552  87.725  1.00  0.00     0.061 C 
ATOM      6  C   UNL     1      24.386 -24.771  87.253  1.00  0.00     0.102 C 
ATOM      7  C   UNL     1      25.254 -26.037  87.158  1.00  0.00     0.115 C 
ATOM      8  C   UNL     1      20.600 -27.610  88.681  1.00  0.00    -0.020 A 
ATOM      9  C   UNL     1      22.964 -28.146  89.444  1.00  0.00    -0.011 A 
ATOM     10  C   UNL     1      21.572 -28.301  89.434  1.00  0.00     0.010 A 
ATOM     11  C   UNL     1      24.724 -27.127  88.056  1.00  0.00    -0.007 C 
ATOM     12  C   UNL     1      20.933 -29.232  90.236  1.00  0.00     0.046 A 
ATOM     13  C   UNL     1      22.195 -23.839  86.952  1.00  0.00     0.106 C 
ATOM     14  C   UNL     1      19.372 -28.125  89.026  1.00  0.00     0.087 A 
ATOM     15  C   UNL     1      23.695 -28.972  90.307  1.00  0.00     0.009 A 
ATOM     16  C   UNL     1      21.648 -30.067  91.097  1.00  0.00     0.027 A 
ATOM     17  C   UNL     1      23.044 -29.914  91.115  1.00  0.00     0.003 A 
ATOM     18  H   UNL     1      18.863 -29.663  90.405  1.00  0.00     0.166 HD
ENDROOT
BRANCH   7  19
ATOM     19  C   UNL     1      26.701 -25.705  87.532  1.00  0.00     0.225 C 
ATOM     20  O   UNL     1      27.098 -25.473  88.668  1.00  0.00    -0.275 OA
ATOM     21  N   UNL     1      27.579 -25.685  86.481  1.00  0.00    -0.369 N 
ATOM     22  H   UNL     1      28.536 -25.422  86.679  1.00  0.00     0.159 HD
ATOM     23  H   UNL     1      27.278 -25.741  85.519  1.00  0.00     0.159 HD
ENDBRANCH   7  19
TORSDOF 1
ENDMDL
MODEL 5
REMARK VINA RESULT:    -8.061      2.613      4.597
REMARK INTER + INTRA:          -8.627
REMARK INTER:                  -8.525
REMARK INTRA:                  -0.102
REMARK UNBOUND:                -0.095
REMARK SMILES CN1C[C@H](C(N)=O)C=C2c3cccc4[nH]cc(c34)C[C@H]21
REMARK SMILES IDX 2 1 15 2 20 3 9 4 19 5 3 6 4 7 17 8 10 9 18 10 8 11 14 12
REMARK SMILES IDX 1 13 16 14 11 15 13 16 12 17 5 19 7 20 6 21
REMARK H PARENT 15 18 6 22 6 23
ROOT
ATOM      1  N   UNL     1      24.427 -24.821  89.761  1.00  0.00    -0.298 NA
ATOM      2  N   UNL     1      18.671 -24.202  88.128  1.00  0.00    -0.361 N 
ATOM      3  C   UNL     1      23.088 -25.117  89.161  1.00  0.00     0.091 C 
ATOM      4  C   UNL     1      23.126 -25.221  87.601  1.00  0.00    -0.026 C 
ATOM      5  C   UNL     1      22.027 -24.069  89.675  1.00  0.00     0.061 C 
ATOM      6  C   UNL     1      25.480 -25.603  89.081  1.00  0.00     0.102 C 
ATOM      7  C   UNL     1      25.616 -25.181  87.608  1.00  0.00     0.115 C 
ATOM      8  C   UNL     1      20.744 -24.198  88.928  1.00  0.00    -0.020 A 
ATOM      9  C   UNL     1      21.820 -25.302  86.907  1.00  0.00    -0.011 A 
ATOM     10  C   UNL     1      20.748 -24.781  87.642  1.00  0.00     0.010 A 
ATOM     11  C   UNL     1      24.281 -25.217  86.908  1.00  0.00    -0.007 C 
ATOM     12  C   UNL     1      19.453 -24.782  87.151  1.00  0.00     0.046 A 
ATOM     13  C   UNL     1      24.452 -25.123  91.195  1.00  0.00     0.106 C 
ATOM     14  C   UNL     1      19.445 -23.843  89.212  1.00  0.00     0.087 A 
ATOM     15  C   UNL     1      21.532 -25.833  85.643  1.00  0.00     0.009 A 
ATOM     16  C   UNL     1      19.151 -25.302  85.891  1.00  0.00     0.027 A 
ATOM     17  C   UNL     1      20.221 -25.829  85.150  1.00  0.00     0.003 A 
ATOM     18  H   UNL     1      17.674 -24.060  88.054  1.00  0.00     0.166 HD
ENDROOT
BRANCH   7  19
ATOM     19  C   UNL     1      26.609 -26.102  86.893  1.00  0.00     0.225 C 
ATOM     20  O   UNL     1      26.451 -27.304  86.715  1.00  0.00    -0.275 OA
ATOM     21  N   UNL     1      27.741 -25.483  86.432  1.00  0.00    -0.369 N 
ATOM     22  H   UNL     1      28.445 -26.066  85.996  1.00  0.00     0.159 HD
ATOM     23  H   UNL     1      27.974 -24.529  86.666  1.00  0.00     0.159 HD
ENDBRANCH   7  19
TORSDOF 1
ENDMDL
MODEL 6
REMARK VINA RESULT:    -7.942      2.810      6.284
REMARK INTER + INTRA:          -8.502
REMARK INTER:                  -8.403
REMARK INTRA:                  -0.099
REMARK UNBOUND:                -0.095
REMARK SMILES CN1C[C@H](C(N)=O)C=C2c3cccc4[nH]cc(c34)C[C@H]21
REMARK SMILES IDX 2 1 15 2 20 3 9 4 19 5 3 6 4 7 17 8 10 9 18 10 8 11 14 12
REMARK SMILES IDX 1 13 16 14 11 15 13 16 12 17 5 19 7 20 6 21
REMARK H PARENT 15 18 6 22 6 23
ROOT
ATOM      1  N   UNL     1      19.504 -27.033  88.169  1.00  0.00    -0.298 NA
ATOM      2  N   UNL     1      25.407 -27.597  89.168  1.00  0.00    -0.361 N 
ATOM      3  C   UNL     1      20.939 -26.677  88.397  1.00  0.00     0.091 C 
ATOM      4  C   UNL     1      21.598 -25.972  87.166  1.00  0.00    -0.026 C 
ATOM      5  C   UNL     1      21.739 -27.951  88.870  1.00  0.00     0.061 C 
ATOM      6  C   UNL     1      18.807 -25.939  87.460  1.00  0.00     0.102 C 
ATOM      7  C   UNL     1      19.384 -25.739  86.049  1.00  0.00     0.115 C 
ATOM      8  C   UNL     1      23.205 -27.684  88.889  1.00  0.00    -0.020 A 
ATOM      9  C   UNL     1      23.065 -25.773  87.219  1.00  0.00    -0.011 A 
ATOM     10  C   UNL     1      23.731 -26.652  88.083  1.00  0.00     0.010 A 
ATOM     11  C   UNL     1      20.884 -25.581  86.093  1.00  0.00    -0.007 C 
ATOM     12  C   UNL     1      25.103 -26.603  88.263  1.00  0.00     0.046 A 
ATOM     13  C   UNL     1      18.810 -27.310  89.430  1.00  0.00     0.106 C 
ATOM     14  C   UNL     1      24.262 -28.260  89.555  1.00  0.00     0.087 A 
ATOM     15  C   UNL     1      23.844 -24.829  86.539  1.00  0.00     0.009 A 
ATOM     16  C   UNL     1      25.895 -25.671  87.588  1.00  0.00     0.027 A 
ATOM     17  C   UNL     1      25.233 -24.784  86.724  1.00  0.00     0.003 A 
ATOM     18  H   UNL     1      26.339 -27.807  89.496  1.00  0.00     0.166 HD
ENDROOT
BRANCH   7  19
ATOM     19  C   UNL     1      18.745 -24.511  85.395  1.00  0.00     0.225 C 
ATOM     20  O   UNL     1      18.675 -23.399  85.906  1.00  0.00    -0.275 OA
ATOM     21  N   UNL     1      18.235 -24.724  84.142  1.00  0.00    -0.369 N 
ATOM     22  H   UNL     1      17.761 -23.949  83.694  1.00  0.00     0.159 HD
ATOM     23  H   UNL     1      18.154 -25.645  83.736  1.00  0.00     0.159 HD
ENDBRANCH   7  19
TORSDOF 1
ENDMDL
MODEL 7
REMARK VINA RESULT:    -7.937      2.651      6.528
REMARK INTER + INTRA:          -8.495
REMARK INTER:                  -8.383
REMARK INTRA:                  -0.112
REMARK UNBOUND:                -0.095
REMARK SMILES CN1C[C@H](C(N)=O)C=C2c3cccc4[nH]cc(c34)C[C@H]21
REMARK SMILES IDX 2 1 15 2 20 3 9 4 19 5 3 6 4 7 17 8 10 9 18 10 8 11 14 12
REMARK SMILES IDX 1 13 16 14 11 15 13 16 12 17 5 19 7 20 6 21
REMARK H PARENT 15 18 6 22 6 23
ROOT
ATOM      1  N   UNL     1      20.365 -24.817  88.644  1.00  0.00    -0.298 NA
ATOM      2  N   UNL     1      26.234 -24.838  89.960  1.00  0.00    -0.361 N 
ATOM      3  C   UNL     1      21.834 -24.545  88.557  1.00  0.00     0.091 C 
ATOM      4  C   UNL     1      22.500 -25.181  87.293  1.00  0.00    -0.026 C 
ATOM      5  C   UNL     1      22.539 -24.977  89.900  1.00  0.00     0.061 C 
ATOM      6  C   UNL     1      19.737 -24.689  87.312  1.00  0.00     0.102 C 
ATOM      7  C   UNL     1      20.272 -25.759  86.345  1.00  0.00     0.115 C 
ATOM      8  C   UNL     1      24.023 -24.928  89.764  1.00  0.00    -0.020 A 
ATOM      9  C   UNL     1      23.980 -25.145  87.231  1.00  0.00    -0.011 A 
ATOM     10  C   UNL     1      24.602 -25.019  88.480  1.00  0.00     0.010 A 
ATOM     11  C   UNL     1      21.779 -25.758  86.313  1.00  0.00    -0.007 C 
ATOM     12  C   UNL     1      25.980 -24.961  88.610  1.00  0.00     0.046 A 
ATOM     13  C   UNL     1      19.703 -23.902  89.579  1.00  0.00     0.106 C 
ATOM     14  C   UNL     1      25.052 -24.818  90.670  1.00  0.00     0.087 A 
ATOM     15  C   UNL     1      24.810 -25.207  86.105  1.00  0.00     0.009 A 
ATOM     16  C   UNL     1      26.821 -25.027  87.498  1.00  0.00     0.027 A 
ATOM     17  C   UNL     1      26.204 -25.149  86.242  1.00  0.00     0.003 A 
ATOM     18  H   UNL     1      27.156 -24.775  90.365  1.00  0.00     0.166 HD
ENDROOT
BRANCH   7  19
ATOM     19  C   UNL     1      19.715 -25.515  84.940  1.00  0.00     0.225 C 
ATOM     20  O   UNL     1      18.608 -25.050  84.693  1.00  0.00    -0.275 OA
ATOM     21  N   UNL     1      20.561 -25.852  83.916  1.00  0.00    -0.369 N 
ATOM     22  H   UNL     1      20.212 -25.751  82.971  1.00  0.00     0.159 HD
ATOM     23  H   UNL     1      21.424 -26.354  84.067  1.00  0.00     0.159 HD
ENDBRANCH   7  19
TORSDOF 1
ENDMDL
MODEL 8
REMARK VINA RESULT:    -7.800      4.161      6.379
REMARK INTER + INTRA:          -8.351
REMARK INTER:                  -8.248
REMARK INTRA:                  -0.103
REMARK UNBOUND:                -0.095
REMARK SMILES CN1C[C@H](C(N)=O)C=C2c3cccc4[nH]cc(c34)C[C@H]21
REMARK SMILES IDX 2 1 15 2 20 3 9 4 19 5 3 6 4 7 17 8 10 9 18 10 8 11 14 12
REMARK SMILES IDX 1 13 16 14 11 15 13 16 12 17 5 19 7 20 6 21
REMARK H PARENT 15 18 6 22 6 23
ROOT
ATOM      1  N   UNL     1      21.743 -28.050  90.633  1.00  0.00    -0.298 NA
ATOM      2  N   UNL     1      23.145 -24.559  85.940  1.00  0.00    -0.361 N 
ATOM      3  C   UNL     1      22.467 -27.508  89.440  1.00  0.00     0.091 C 
ATOM      4  C   UNL     1      23.896 -26.973  89.783  1.00  0.00    -0.026 C 
ATOM      5  C   UNL     1      21.572 -26.432  88.713  1.00  0.00     0.061 C 
ATOM      6  C   UNL     1      22.662 -28.837  91.481  1.00  0.00     0.102 C 
ATOM      7  C   UNL     1      23.767 -27.945  92.072  1.00  0.00     0.115 C 
ATOM      8  C   UNL     1      22.348 -25.717  87.660  1.00  0.00    -0.020 A 
ATOM      9  C   UNL     1      24.603 -26.230  88.715  1.00  0.00    -0.011 A 
ATOM     10  C   UNL     1      23.756 -25.672  87.749  1.00  0.00     0.010 A 
ATOM     11  C   UNL     1      24.460 -27.152  90.993  1.00  0.00    -0.007 C 
ATOM     12  C   UNL     1      24.245 -24.951  86.673  1.00  0.00     0.046 A 
ATOM     13  C   UNL     1      20.610 -28.893  90.237  1.00  0.00     0.106 C 
ATOM     14  C   UNL     1      21.987 -25.019  86.531  1.00  0.00     0.087 A 
ATOM     15  C   UNL     1      25.979 -26.034  88.549  1.00  0.00     0.009 A 
ATOM     16  C   UNL     1      25.615 -24.741  86.497  1.00  0.00     0.027 A 
ATOM     17  C   UNL     1      26.470 -25.301  87.460  1.00  0.00     0.003 A 
ATOM     18  H   UNL     1      23.187 -24.012  85.092  1.00  0.00     0.166 HD
ENDROOT
BRANCH   7  19
ATOM     19  C   UNL     1      24.784 -28.808  92.825  1.00  0.00     0.225 C 
ATOM     20  O   UNL     1      25.866 -28.413  93.245  1.00  0.00    -0.275 OA
ATOM     21  N   UNL     1      24.404 -30.109  93.024  1.00  0.00    -0.369 N 
ATOM     22  H   UNL     1      25.068 -30.724  93.476  1.00  0.00     0.159 HD
ATOM     23  H   UNL     1      23.586 -30.509  92.588  1.00  0.00     0.159 HD
ENDBRANCH   7  19
TORSDOF 1
ENDMDL
MODEL 9
REMARK VINA RESULT:    -7.782      4.739      6.913
REMARK INTER + INTRA:          -8.332
REMARK INTER:                  -8.210
REMARK INTRA:                  -0.121
REMARK UNBOUND:                -0.095
REMARK SMILES CN1C[C@H](C(N)=O)C=C2c3cccc4[nH]cc(c34)C[C@H]21
REMARK SMILES IDX 2 1 15 2 20 3 9 4 19 5 3 6 4 7 17 8 10 9 18 10 8 11 14 12
REMARK SMILES IDX 1 13 16 14 11 15 13 16 12 17 5 19 7 20 6 21
REMARK H PARENT 15 18 6 22 6 23
ROOT
ATOM      1  N   UNL     1      21.847 -29.166  90.716  1.00  0.00    -0.298 NA
ATOM      2  N   UNL     1      26.286 -26.596  87.575  1.00  0.00    -0.361 N 
ATOM      3  C   UNL     1      22.696 -28.119  90.065  1.00  0.00     0.091 C 
ATOM      4  C   UNL     1      21.953 -27.353  88.922  1.00  0.00    -0.026 C 
ATOM      5  C   UNL     1      24.058 -28.755  89.587  1.00  0.00     0.061 C 
ATOM      6  C   UNL     1      20.470 -28.666  90.911  1.00  0.00     0.102 C 
ATOM      7  C   UNL     1      19.784 -28.397  89.561  1.00  0.00     0.115 C 
ATOM      8  C   UNL     1      24.826 -27.797  88.741  1.00  0.00    -0.020 A 
ATOM      9  C   UNL     1      22.773 -26.449  88.083  1.00  0.00    -0.011 A 
ATOM     10  C   UNL     1      24.140 -26.759  88.075  1.00  0.00     0.010 A 
ATOM     11  C   UNL     1      20.637 -27.514  88.685  1.00  0.00    -0.007 C 
ATOM     12  C   UNL     1      25.056 -26.014  87.352  1.00  0.00     0.046 A 
ATOM     13  C   UNL     1      22.399 -29.577  92.010  1.00  0.00     0.106 C 
ATOM     14  C   UNL     1      26.157 -27.680  88.417  1.00  0.00     0.087 A 
ATOM     15  C   UNL     1      22.363 -25.344  87.328  1.00  0.00     0.009 A 
ATOM     16  C   UNL     1      24.661 -24.913  86.589  1.00  0.00     0.027 A 
ATOM     17  C   UNL     1      23.294 -24.594  86.596  1.00  0.00     0.003 A 
ATOM     18  H   UNL     1      27.154 -26.272  87.173  1.00  0.00     0.166 HD
ENDROOT
BRANCH   7  19
ATOM     19  C   UNL     1      18.418 -27.747  89.792  1.00  0.00     0.225 C 
ATOM     20  O   UNL     1      17.338 -28.306  89.637  1.00  0.00    -0.275 OA
ATOM     21  N   UNL     1      18.461 -26.443  90.209  1.00  0.00    -0.369 N 
ATOM     22  H   UNL     1      17.579 -25.962  90.327  1.00  0.00     0.159 HD
ATOM     23  H   UNL     1      19.316 -25.905  90.226  1.00  0.00     0.159 HD
ENDBRANCH   7  19
TORSDOF 1
ENDMDL
MODEL 10
REMARK VINA RESULT:    -7.775      4.568      6.727
REMARK INTER + INTRA:          -8.324
REMARK INTER:                  -8.211
REMARK INTRA:                  -0.113
REMARK UNBOUND:                -0.095
REMARK SMILES CN1C[C@H](C(N)=O)C=C2c3cccc4[nH]cc(c34)C[C@H]21
REMARK SMILES IDX 2 1 15 2 20 3 9 4 19 5 3 6 4 7 17 8 10 9 18 10 8 11 14 12
REMARK SMILES IDX 1 13 16 14 11 15 13 16 12 17 5 19 7 20 6 21
REMARK H PARENT 15 18 6 22 6 23
ROOT
ATOM      1  N   UNL     1      24.871 -26.656  89.755  1.00  0.00    -0.298 NA
ATOM      2  N   UNL     1      20.040 -29.612  91.778  1.00  0.00    -0.361 N 
ATOM      3  C   UNL     1      23.646 -27.516  89.776  1.00  0.00     0.091 C 
ATOM      4  C   UNL     1      22.465 -26.918  88.945  1.00  0.00    -0.026 C 
ATOM      5  C   UNL     1      23.242 -27.836  91.267  1.00  0.00     0.061 C 
ATOM      6  C   UNL     1      25.098 -26.115  88.398  1.00  0.00     0.102 C 
ATOM      7  C   UNL     1      23.956 -25.172  87.983  1.00  0.00     0.115 C 
ATOM      8  C   UNL     1      21.908 -28.499  91.327  1.00  0.00    -0.020 A 
ATOM      9  C   UNL     1      21.151 -27.589  89.078  1.00  0.00    -0.011 A 
ATOM     10  C   UNL     1      20.999 -28.321  90.263  1.00  0.00     0.010 A 
ATOM     11  C   UNL     1      22.613 -25.834  88.160  1.00  0.00    -0.007 C 
ATOM     12  C   UNL     1      19.838 -29.019  90.550  1.00  0.00     0.046 A 
ATOM     13  C   UNL     1      26.059 -27.401  90.182  1.00  0.00     0.106 C 
ATOM     14  C   UNL     1      21.294 -29.303  92.260  1.00  0.00     0.087 A 
ATOM     15  C   UNL     1      20.075 -27.592  88.182  1.00  0.00     0.009 A 
ATOM     16  C   UNL     1      18.755 -29.026  89.669  1.00  0.00     0.027 A 
ATOM     17  C   UNL     1      18.901 -28.298  88.477  1.00  0.00     0.003 A 
ATOM     18  H   UNL     1      19.361 -30.189  92.254  1.00  0.00     0.166 HD
ENDROOT
BRANCH   7  19
ATOM     19  C   UNL     1      24.142 -24.741  86.525  1.00  0.00     0.225 C 
ATOM     20  O   UNL     1      25.223 -24.525  85.989  1.00  0.00    -0.275 OA
ATOM     21  N   UNL     1      22.982 -24.609  85.809  1.00  0.00    -0.369 N 
ATOM     22  H   UNL     1      23.059 -24.279  84.855  1.00  0.00     0.159 HD
ATOM     23  H   UNL     1      22.069 -24.650  86.239  1.00  0.00     0.159 HD
ENDBRANCH   7  19
TORSDOF 1
ENDMDL
MODEL 11
REMARK VINA RESULT:    -7.685      5.197      7.816
REMARK INTER + INTRA:          -8.229
REMARK INTER:                  -8.123
REMARK INTRA:                  -0.106
REMARK UNBOUND:                -0.095
REMARK SMILES CN1C[C@H](C(N)=O)C=C2c3cccc4[nH]cc(c34)C[C@H]21
REMARK SMILES IDX 2 1 15 2 20 3 9 4 19 5 3 6 4 7 17 8 10 9 18 10 8 11 14 12
REMARK SMILES IDX 1 13 16 14 11 15 13 16 12 17 5 19 7 20 6 21
REMARK H PARENT 15 18 6 22 6 23
ROOT
ATOM      1  N   UNL     1      25.741 -25.570  89.990  1.00  0.00    -0.298 NA
ATOM      2  N   UNL     1      22.169 -29.135  93.264  1.00  0.00    -0.361 N 
ATOM      3  C   UNL     1      24.828 -26.695  90.368  1.00  0.00     0.091 C 
ATOM      4  C   UNL     1      23.460 -26.652  89.612  1.00  0.00    -0.026 C 
ATOM      5  C   UNL     1      24.657 -26.744  91.935  1.00  0.00     0.061 C 
ATOM      6  C   UNL     1      25.688 -25.330  88.533  1.00  0.00     0.102 C 
ATOM      7  C   UNL     1      24.290 -24.855  88.102  1.00  0.00     0.115 C 
ATOM      8  C   UNL     1      23.586 -27.704  92.325  1.00  0.00    -0.020 A 
ATOM      9  C   UNL     1      22.416 -27.598  90.071  1.00  0.00    -0.011 A 
ATOM     10  C   UNL     1      22.582 -28.037  91.391  1.00  0.00     0.010 A 
ATOM     11  C   UNL     1      23.219 -25.789  88.606  1.00  0.00    -0.007 C 
ATOM     12  C   UNL     1      21.704 -28.930  91.982  1.00  0.00     0.046 A 
ATOM     13  C   UNL     1      27.125 -25.845  90.385  1.00  0.00     0.106 C 
ATOM     14  C   UNL     1      23.312 -28.395  93.483  1.00  0.00     0.087 A 
ATOM     15  C   UNL     1      21.320 -28.102  89.361  1.00  0.00     0.009 A 
ATOM     16  C   UNL     1      20.603 -29.438  91.289  1.00  0.00     0.027 A 
ATOM     17  C   UNL     1      20.433 -29.005  89.964  1.00  0.00     0.003 A 
ATOM     18  H   UNL     1      21.730 -29.740  93.942  1.00  0.00     0.166 HD
ENDROOT
BRANCH   7  19
ATOM     19  C   UNL     1      24.223 -24.753  86.576  1.00  0.00     0.225 C 
ATOM     20  O   UNL     1      25.196 -24.704  85.831  1.00  0.00    -0.275 OA
ATOM     21  N   UNL     1      22.958 -24.723  86.053  1.00  0.00    -0.369 N 
ATOM     22  H   UNL     1      22.870 -24.607  85.052  1.00  0.00     0.159 HD
ATOM     23  H   UNL     1      22.133 -24.630  86.629  1.00  0.00     0.159 HD
ENDBRANCH   7  19
TORSDOF 1
ENDMDL
MODEL 12
REMARK VINA RESULT:    -7.683      3.403      6.165
REMARK INTER + INTRA:          -8.227
REMARK INTER:                  -8.132
REMARK INTRA:                  -0.095
REMARK UNBOUND:                -0.095
REMARK SMILES CN1C[C@H](C(N)=O)C=C2c3cccc4[nH]cc(c34)C[C@H]21
REMARK SMILES IDX 2 1 15 2 20 3 9 4 19 5 3 6 4 7 17 8 10 9 18 10 8 11 14 12
REMARK SMILES IDX 1 13 16 14 11 15 13 16 12 17 5 19 7 20 6 21
REMARK H PARENT 15 18 6 22 6 23
ROOT
ATOM      1  N   UNL     1      19.853 -24.704  87.523  1.00  0.00    -0.298 NA
ATOM      2  N   UNL     1      25.759 -25.536  86.753  1.00  0.00    -0.361 N 
ATOM      3  C   UNL     1      21.169 -25.385  87.314  1.00  0.00     0.091 C 
ATOM      4  C   UNL     1      21.578 -26.306  88.509  1.00  0.00    -0.026 C 
ATOM      5  C   UNL     1      22.275 -24.317  86.962  1.00  0.00     0.061 C 
ATOM      6  C   UNL     1      18.879 -25.638  88.127  1.00  0.00     0.102 C 
ATOM      7  C   UNL     1      19.323 -26.063  89.537  1.00  0.00     0.115 C 
ATOM      8  C   UNL     1      23.633 -24.932  86.968  1.00  0.00    -0.020 A 
ATOM      9  C   UNL     1      22.954 -26.854  88.487  1.00  0.00    -0.011 A 
ATOM     10  C   UNL     1      23.854 -26.111  87.712  1.00  0.00     0.010 A 
ATOM     11  C   UNL     1      20.740 -26.579  89.527  1.00  0.00    -0.007 C 
ATOM     12  C   UNL     1      25.181 -26.482  87.571  1.00  0.00     0.046 A 
ATOM     13  C   UNL     1      19.309 -24.186  86.265  1.00  0.00     0.106 C 
ATOM     14  C   UNL     1      24.828 -24.589  86.380  1.00  0.00     0.087 A 
ATOM     15  C   UNL     1      23.449 -28.002  89.119  1.00  0.00     0.009 A 
ATOM     16  C   UNL     1      25.691 -27.620  88.200  1.00  0.00     0.027 A 
ATOM     17  C   UNL     1      24.794 -28.372  88.975  1.00  0.00     0.003 A 
ATOM     18  H   UNL     1      26.729 -25.539  86.470  1.00  0.00     0.166 HD
ENDROOT
BRANCH   7  19
ATOM     19  C   UNL     1      18.376 -27.137  90.078  1.00  0.00     0.225 C 
ATOM     20  O   UNL     1      17.768 -27.950  89.390  1.00  0.00    -0.275 OA
ATOM     21  N   UNL     1      18.237 -27.153  91.440  1.00  0.00    -0.369 N 
ATOM     22  H   UNL     1      17.583 -27.816  91.835  1.00  0.00     0.159 HD
ATOM     23  H   UNL     1      18.613 -26.427  92.034  1.00  0.00     0.159 HD
ENDBRANCH   7  19
TORSDOF 1
ENDMDL
MODEL 13
REMARK VINA RESULT:    -7.667      4.270      6.228
REMARK INTER + INTRA:          -8.210
REMARK INTER:                  -8.103
REMARK INTRA:                  -0.107
REMARK UNBOUND:                -0.095
REMARK SMILES CN1C[C@H](C(N)=O)C=C2c3cccc4[nH]cc(c34)C[C@H]21
REMARK SMILES IDX 2 1 15 2 20 3 9 4 19 5 3 6 4 7 17 8 10 9 18 10 8 11 14 12
REMARK SMILES IDX 1 13 16 14 11 15 13 16 12 17 5 19 7 20 6 21
REMARK H PARENT 15 18 6 22 6 23
ROOT
ATOM      1  N   UNL     1      20.209 -26.764  89.013  1.00  0.00    -0.298 NA
ATOM      2  N   UNL     1      25.092 -24.705  86.168  1.00  0.00    -0.361 N 
ATOM      3  C   UNL     1      21.493 -26.741  88.244  1.00  0.00     0.091 C 
ATOM      4  C   UNL     1      22.683 -27.393  89.020  1.00  0.00    -0.026 C 
ATOM      5  C   UNL     1      21.807 -25.270  87.769  1.00  0.00     0.061 C 
ATOM      6  C   UNL     1      20.044 -28.061  89.702  1.00  0.00     0.102 C 
ATOM      7  C   UNL     1      21.136 -28.264  90.766  1.00  0.00     0.115 C 
ATOM      8  C   UNL     1      23.181 -25.176  87.198  1.00  0.00    -0.020 A 
ATOM      9  C   UNL     1      24.032 -27.230  88.430  1.00  0.00    -0.011 A 
ATOM     10  C   UNL     1      24.151 -26.132  87.568  1.00  0.00     0.010 A 
ATOM     11  C   UNL     1      22.510 -28.054  90.181  1.00  0.00    -0.007 C 
ATOM     12  C   UNL     1      25.338 -25.833  86.921  1.00  0.00     0.046 A 
ATOM     13  C   UNL     1      19.055 -26.529  88.142  1.00  0.00     0.106 C 
ATOM     14  C   UNL     1      23.784 -24.297  86.328  1.00  0.00     0.087 A 
ATOM     15  C   UNL     1      25.169 -28.027  88.613  1.00  0.00     0.009 A 
ATOM     16  C   UNL     1      26.482 -26.614  87.098  1.00  0.00     0.027 A 
ATOM     17  C   UNL     1      26.369 -27.719  87.957  1.00  0.00     0.003 A 
ATOM     18  H   UNL     1      25.776 -24.245  85.584  1.00  0.00     0.166 HD
ENDROOT
BRANCH   7  19
ATOM     19  C   UNL     1      21.027 -29.671  91.361  1.00  0.00     0.225 C 
ATOM     20  O   UNL     1      21.781 -30.603  91.103  1.00  0.00    -0.275 OA
ATOM     21  N   UNL     1      19.998 -29.846  92.247  1.00  0.00    -0.369 N 
ATOM     22  H   UNL     1      19.862 -30.774  92.626  1.00  0.00     0.159 HD
ATOM     23  H   UNL     1      19.280 -29.150  92.391  1.00  0.00     0.159 HD
ENDBRANCH   7  19
TORSDOF 1
ENDMDL
MODEL 14
REMARK VINA RESULT:    -7.647      5.890      8.443
REMARK INTER + INTRA:          -8.189
REMARK INTER:                  -8.070
REMARK INTRA:                  -0.119
REMARK UNBOUND:                -0.095
REMARK SMILES CN1C[C@H](C(N)=O)C=C2c3cccc4[nH]cc(c34)C[C@H]21
REMARK SMILES IDX 2 1 15 2 20 3 9 4 19 5 3 6 4 7 17 8 10 9 18 10 8 11 14 12
REMARK SMILES IDX 1 13 16 14 11 15 13 16 12 17 5 19 7 20 6 21
REMARK H PARENT 15 18 6 22 6 23
ROOT
ATOM      1  N   UNL     1      17.817 -29.245  93.688  1.00  0.00    -0.298 NA
ATOM      2  N   UNL     1      22.037 -28.998  89.409  1.00  0.00    -0.361 N 
ATOM      3  C   UNL     1      18.681 -28.724  92.582  1.00  0.00     0.091 C 
ATOM      4  C   UNL     1      17.878 -28.398  91.280  1.00  0.00    -0.026 C 
ATOM      5  C   UNL     1      19.881 -29.715  92.326  1.00  0.00     0.061 C 
ATOM      6  C   UNL     1      16.548 -28.491  93.750  1.00  0.00     0.102 C 
ATOM      7  C   UNL     1      15.715 -28.706  92.476  1.00  0.00     0.115 C 
ATOM      8  C   UNL     1      20.627 -29.341  91.090  1.00  0.00    -0.020 A 
ATOM      9  C   UNL     1      18.671 -28.077  90.071  1.00  0.00    -0.011 A 
ATOM     10  C   UNL     1      19.978 -28.581  90.094  1.00  0.00     0.010 A 
ATOM     11  C   UNL     1      16.532 -28.425  91.239  1.00  0.00    -0.007 C 
ATOM     12  C   UNL     1      20.863 -28.370  89.050  1.00  0.00     0.046 A 
ATOM     13  C   UNL     1      18.494 -29.160  94.985  1.00  0.00     0.106 C 
ATOM     14  C   UNL     1      21.904 -29.592  90.646  1.00  0.00     0.087 A 
ATOM     15  C   UNL     1      18.288 -27.341  88.944  1.00  0.00     0.009 A 
ATOM     16  C   UNL     1      20.494 -27.643  87.917  1.00  0.00     0.027 A 
ATOM     17  C   UNL     1      19.187 -27.131  87.889  1.00  0.00     0.003 A 
ATOM     18  H   UNL     1      22.871 -29.020  88.840  1.00  0.00     0.166 HD
ENDROOT
BRANCH   7  19
ATOM     19  C   UNL     1      14.478 -27.803  92.505  1.00  0.00     0.225 C 
ATOM     20  O   UNL     1      13.323 -28.198  92.617  1.00  0.00    -0.275 OA
ATOM     21  N   UNL     1      14.738 -26.463  92.401  1.00  0.00    -0.369 N 
ATOM     22  H   UNL     1      13.944 -25.836  92.368  1.00  0.00     0.159 HD
ATOM     23  H   UNL     1      15.655 -26.102  92.179  1.00  0.00     0.159 HD
ENDBRANCH   7  19
TORSDOF 1
ENDMDL
MODEL 15
REMARK VINA RESULT:    -7.617      1.788      3.498
REMARK INTER + INTRA:          -8.158
REMARK INTER:                  -8.046
REMARK INTRA:                  -0.112
REMARK UNBOUND:                -0.095
REMARK SMILES CN1C[C@H](C(N)=O)C=C2c3cccc4[nH]cc(c34)C[C@H]21
REMARK SMILES IDX 2 1 15 2 20 3 9 4 19 5 3 6 4 7 17 8 10 9 18 10 8 11 14 12
REMARK SMILES IDX 1 13 16 14 11 15 13 16 12 17 5 19 7 20 6 21
REMARK H PARENT 15 18 6 22 6 23
ROOT
ATOM      1  N   UNL     1      21.586 -25.784  86.556  1.00  0.00    -0.298 NA
ATOM      2  N   UNL     1      18.756 -26.096  81.259  1.00  0.00    -0.361 N 
ATOM      3  C   UNL     1      20.660 -25.457  85.427  1.00  0.00     0.091 C 
ATOM      4  C   UNL     1      19.151 -25.592  85.814  1.00  0.00    -0.026 C 
ATOM      5  C   UNL     1      21.042 -26.311  84.157  1.00  0.00     0.061 C 
ATOM      6  C   UNL     1      21.076 -25.216  87.822  1.00  0.00     0.102 C 
ATOM      7  C   UNL     1      19.739 -25.865  88.218  1.00  0.00     0.115 C 
ATOM      8  C   UNL     1      20.008 -26.175  83.092  1.00  0.00    -0.020 A 
ATOM      9  C   UNL     1      18.169 -25.494  84.710  1.00  0.00    -0.011 A 
ATOM     10  C   UNL     1      18.696 -25.795  83.447  1.00  0.00     0.010 A 
ATOM     11  C   UNL     1      18.750 -25.809  87.081  1.00  0.00    -0.007 C 
ATOM     12  C   UNL     1      17.922 -25.746  82.299  1.00  0.00     0.046 A 
ATOM     13  C   UNL     1      22.938 -25.274  86.309  1.00  0.00     0.106 C 
ATOM     14  C   UNL     1      20.025 -26.360  81.729  1.00  0.00     0.087 A 
ATOM     15  C   UNL     1      16.817 -25.134  84.771  1.00  0.00     0.009 A 
ATOM     16  C   UNL     1      16.571 -25.395  82.345  1.00  0.00     0.027 A 
ATOM     17  C   UNL     1      16.038 -25.088  83.607  1.00  0.00     0.003 A 
ATOM     18  H   UNL     1      18.471 -26.153  80.291  1.00  0.00     0.166 HD
ENDROOT
BRANCH   7  19
ATOM     19  C   UNL     1      19.165 -25.160  89.450  1.00  0.00     0.225 C 
ATOM     20  O   UNL     1      18.426 -25.682  90.278  1.00  0.00    -0.275 OA
ATOM     21  N   UNL     1      19.540 -23.851  89.595  1.00  0.00    -0.369 N 
ATOM     22  H   UNL     1      19.143 -23.336  90.371  1.00  0.00     0.159 HD
ATOM     23  H   UNL     1      20.038 -23.345  88.877  1.00  0.00     0.159 HD
ENDBRANCH   7  19
TORSDOF 1
ENDMDL
MODEL 16
REMARK VINA RESULT:    -7.615      6.329      8.473
REMARK INTER + INTRA:          -8.156
REMARK INTER:                  -8.056
REMARK INTRA:                  -0.100
REMARK UNBOUND:                -0.095
REMARK SMILES CN1C[C@H](C(N)=O)C=C2c3cccc4[nH]cc(c34)C[C@H]21
REMARK SMILES IDX 2 1 15 2 20 3 9 4 19 5 3 6 4 7 17 8 10 9 18 10 8 11 14 12
REMARK SMILES IDX 1 13 16 14 11 15 13 16 12 17 5 19 7 20 6 21
REMARK H PARENT 15 18 6 22 6 23
ROOT
ATOM      1  N   UNL     1      16.196 -28.474  92.448  1.00  0.00    -0.298 NA
ATOM      2  N   UNL     1      20.377 -28.144  88.137  1.00  0.00    -0.361 N 
ATOM      3  C   UNL     1      17.352 -28.836  91.569  1.00  0.00     0.091 C 
ATOM      4  C   UNL     1      18.704 -28.940  92.348  1.00  0.00    -0.026 C 
ATOM      5  C   UNL     1      17.427 -27.843  90.347  1.00  0.00     0.061 C 
ATOM      6  C   UNL     1      16.276 -29.202  93.732  1.00  0.00     0.102 C 
ATOM      7  C   UNL     1      17.518 -28.776  94.532  1.00  0.00     0.115 C 
ATOM      8  C   UNL     1      18.690 -28.036  89.579  1.00  0.00    -0.020 A 
ATOM      9  C   UNL     1      19.932 -29.086  91.533  1.00  0.00    -0.011 A 
ATOM     10  C   UNL     1      19.806 -28.619  90.218  1.00  0.00     0.010 A 
ATOM     11  C   UNL     1      18.767 -28.879  93.692  1.00  0.00    -0.007 C 
ATOM     12  C   UNL     1      20.852 -28.684  89.313  1.00  0.00     0.046 A 
ATOM     13  C   UNL     1      14.914 -28.773  91.803  1.00  0.00     0.106 C 
ATOM     14  C   UNL     1      19.065 -27.746  88.288  1.00  0.00     0.087 A 
ATOM     15  C   UNL     1      21.167 -29.631  91.903  1.00  0.00     0.009 A 
ATOM     16  C   UNL     1      22.091 -29.220  89.669  1.00  0.00     0.027 A 
ATOM     17  C   UNL     1      22.224 -29.694  90.984  1.00  0.00     0.003 A 
ATOM     18  H   UNL     1      20.918 -28.052  87.290  1.00  0.00     0.166 HD
ENDROOT
BRANCH   7  19
ATOM     19  C   UNL     1      17.654 -29.646  95.784  1.00  0.00     0.225 C 
ATOM     20  O   UNL     1      16.974 -30.636  96.030  1.00  0.00    -0.275 OA
ATOM     21  N   UNL     1      18.628 -29.248  96.662  1.00  0.00    -0.369 N 
ATOM     22  H   UNL     1      18.717 -29.768  97.525  1.00  0.00     0.159 HD
ATOM     23  H   UNL     1      19.121 -28.372  96.566  1.00  0.00     0.159 HD
ENDBRANCH   7  19
TORSDOF 1
ENDMDL
MODEL 17
REMARK VINA RESULT:    -7.545      3.762      6.576
REMARK INTER + INTRA:          -8.081
REMARK INTER:                  -7.974
REMARK INTRA:                  -0.106
REMARK UNBOUND:                -0.095
REMARK SMILES CN1C[C@H](C(N)=O)C=C2c3cccc4[nH]cc(c34)C[C@H]21
REMARK SMILES IDX 2 1 15 2 20 3 9 4 19 5 3 6 4 7 17 8 10 9 18 10 8 11 14 12
REMARK SMILES IDX 1 13 16 14 11 15 13 16 12 17 5 19 7 20 6 21
REMARK H PARENT 15 18 6 22 6 23
ROOT
ATOM      1  N   UNL     1      25.982 -26.891  90.726  1.00  0.00    -0.298 NA
ATOM      2  N   UNL     1      23.265 -24.690  85.833  1.00  0.00    -0.361 N 
ATOM      3  C   UNL     1      24.932 -26.304  89.836  1.00  0.00     0.091 C 
ATOM      4  C   UNL     1      23.705 -27.251  89.629  1.00  0.00    -0.026 C 
ATOM      5  C   UNL     1      25.581 -25.841  88.474  1.00  0.00     0.061 C 
ATOM      6  C   UNL     1      25.357 -27.582  91.873  1.00  0.00     0.102 C 
ATOM      7  C   UNL     1      24.528 -28.790  91.405  1.00  0.00     0.115 C 
ATOM      8  C   UNL     1      24.533 -25.460  87.486  1.00  0.00    -0.020 A 
ATOM      9  C   UNL     1      22.718 -26.846  88.602  1.00  0.00    -0.011 A 
ATOM     10  C   UNL     1      23.229 -25.983  87.624  1.00  0.00     0.010 A 
ATOM     11  C   UNL     1      23.552 -28.393  90.326  1.00  0.00    -0.007 C 
ATOM     12  C   UNL     1      22.444 -25.497  86.592  1.00  0.00     0.046 A 
ATOM     13  C   UNL     1      26.902 -25.864  91.223  1.00  0.00     0.106 C 
ATOM     14  C   UNL     1      24.536 -24.660  86.367  1.00  0.00     0.087 A 
ATOM     15  C   UNL     1      21.367 -27.202  88.498  1.00  0.00     0.009 A 
ATOM     16  C   UNL     1      21.098 -25.847  86.472  1.00  0.00     0.027 A 
ATOM     17  C   UNL     1      20.577 -26.709  87.451  1.00  0.00     0.003 A 
ATOM     18  H   UNL     1      22.971 -24.195  85.003  1.00  0.00     0.166 HD
ENDROOT
BRANCH   7  19
ATOM     19  C   UNL     1      23.778 -29.398  92.594  1.00  0.00     0.225 C 
ATOM     20  O   UNL     1      22.613 -29.157  92.888  1.00  0.00    -0.275 OA
ATOM     21  N   UNL     1      24.509 -30.276  93.350  1.00  0.00    -0.369 N 
ATOM     22  H   UNL     1      24.065 -30.664  94.173  1.00  0.00     0.159 HD
ATOM     23  H   UNL     1      25.503 -30.407  93.224  1.00  0.00     0.159 HD
ENDBRANCH   7  19
TORSDOF 1
ENDMDL
MODEL 18
REMARK VINA RESULT:    -7.388      4.340      6.676
REMARK INTER + INTRA:          -7.914
REMARK INTER:                  -7.813
REMARK INTRA:                  -0.102
REMARK UNBOUND:                -0.095
REMARK SMILES CN1C[C@H](C(N)=O)C=C2c3cccc4[nH]cc(c34)C[C@H]21
REMARK SMILES IDX 2 1 15 2 20 3 9 4 19 5 3 6 4 7 17 8 10 9 18 10 8 11 14 12
REMARK SMILES IDX 1 13 16 14 11 15 13 16 12 17 5 19 7 20 6 21
REMARK H PARENT 15 18 6 22 6 23
ROOT
ATOM      1  N   UNL     1      20.154 -29.050  91.613  1.00  0.00    -0.298 NA
ATOM      2  N   UNL     1      23.036 -26.018  87.292  1.00  0.00    -0.361 N 
ATOM      3  C   UNL     1      20.470 -28.004  90.591  1.00  0.00     0.091 C 
ATOM      4  C   UNL     1      19.451 -27.979  89.405  1.00  0.00    -0.026 C 
ATOM      5  C   UNL     1      21.963 -28.161  90.107  1.00  0.00     0.061 C 
ATOM      6  C   UNL     1      18.698 -29.101  91.865  1.00  0.00     0.102 C 
ATOM      7  C   UNL     1      17.935 -29.547  90.607  1.00  0.00     0.115 C 
ATOM      8  C   UNL     1      22.240 -27.283  88.935  1.00  0.00    -0.020 A 
ATOM      9  C   UNL     1      19.798 -27.124  88.247  1.00  0.00    -0.011 A 
ATOM     10  C   UNL     1      21.168 -26.855  88.124  1.00  0.00     0.010 A 
ATOM     11  C   UNL     1      18.320 -28.710  89.413  1.00  0.00    -0.007 C 
ATOM     12  C   UNL     1      21.671 -26.066  87.103  1.00  0.00     0.046 A 
ATOM     13  C   UNL     1      20.854 -28.797  92.876  1.00  0.00     0.106 C 
ATOM     14  C   UNL     1      23.393 -26.754  88.402  1.00  0.00     0.087 A 
ATOM     15  C   UNL     1      18.946 -26.556  87.292  1.00  0.00     0.009 A 
ATOM     16  C   UNL     1      20.835 -25.497  86.140  1.00  0.00     0.027 A 
ATOM     17  C   UNL     1      19.460 -25.759  86.260  1.00  0.00     0.003 A 
ATOM     18  H   UNL     1      23.679 -25.515  86.697  1.00  0.00     0.166 HD
ENDROOT
BRANCH   7  19
ATOM     19  C   UNL     1      16.427 -29.453  90.852  1.00  0.00     0.225 C 
ATOM     20  O   UNL     1      15.822 -28.421  91.119  1.00  0.00    -0.275 OA
ATOM     21  N   UNL     1      15.749 -30.638  90.746  1.00  0.00    -0.369 N 
ATOM     22  H   UNL     1      14.757 -30.626  90.948  1.00  0.00     0.159 HD
ATOM     23  H   UNL     1      16.218 -31.528  90.656  1.00  0.00     0.159 HD
ENDBRANCH   7  19
TORSDOF 1
ENDMDL
MODEL 19
REMARK VINA RESULT:    -7.372      3.507      6.012
REMARK INTER + INTRA:          -7.898
REMARK INTER:                  -7.776
REMARK INTRA:                  -0.122
REMARK UNBOUND:                -0.095
REMARK SMILES CN1C[C@H](C(N)=O)C=C2c3cccc4[nH]cc(c34)C[C@H]21
REMARK SMILES IDX 2 1 15 2 20 3 9 4 19 5 3 6 4 7 17 8 10 9 18 10 8 11 14 12
REMARK SMILES IDX 1 13 16 14 11 15 13 16 12 17 5 19 7 20 6 21
REMARK H PARENT 15 18 6 22 6 23
ROOT
ATOM      1  N   UNL     1      19.690 -25.204  87.283  1.00  0.00    -0.298 NA
ATOM      2  N   UNL     1      18.221 -29.538  91.186  1.00  0.00    -0.361 N 
ATOM      3  C   UNL     1      19.688 -26.060  88.511  1.00  0.00     0.091 C 
ATOM      4  C   UNL     1      21.017 -26.862  88.700  1.00  0.00    -0.026 C 
ATOM      5  C   UNL     1      18.411 -26.985  88.518  1.00  0.00     0.061 C 
ATOM      6  C   UNL     1      21.002 -24.545  87.115  1.00  0.00     0.102 C 
ATOM      7  C   UNL     1      22.112 -25.581  86.866  1.00  0.00     0.115 C 
ATOM      8  C   UNL     1      18.494 -28.000  89.606  1.00  0.00    -0.020 A 
ATOM      9  C   UNL     1      21.028 -27.890  89.766  1.00  0.00    -0.011 A 
ATOM     10  C   UNL     1      19.758 -28.362  90.120  1.00  0.00     0.010 A 
ATOM     11  C   UNL     1      22.099 -26.656  87.924  1.00  0.00    -0.007 C 
ATOM     12  C   UNL     1      19.579 -29.318  91.105  1.00  0.00     0.046 A 
ATOM     13  C   UNL     1      18.640 -24.182  87.338  1.00  0.00     0.106 C 
ATOM     14  C   UNL     1      17.552 -28.743  90.279  1.00  0.00     0.087 A 
ATOM     15  C   UNL     1      22.125 -28.424  90.454  1.00  0.00     0.009 A 
ATOM     16  C   UNL     1      20.662 -29.865  91.796  1.00  0.00     0.027 A 
ATOM     17  C   UNL     1      21.939 -29.394  91.449  1.00  0.00     0.003 A 
ATOM     18  H   UNL     1      17.783 -30.192  91.819  1.00  0.00     0.166 HD
ENDROOT
BRANCH   7  19
ATOM     19  C   UNL     1      23.476 -24.886  86.840  1.00  0.00     0.225 C 
ATOM     20  O   UNL     1      23.908 -24.222  85.904  1.00  0.00    -0.275 OA
ATOM     21  N   UNL     1      24.227 -25.043  87.974  1.00  0.00    -0.369 N 
ATOM     22  H   UNL     1      25.155 -24.639  87.978  1.00  0.00     0.159 HD
ATOM     23  H   UNL     1      23.970 -25.682  88.713  1.00  0.00     0.159 HD
ENDBRANCH   7  19
TORSDOF 1
ENDMDL
MODEL 20
REMARK VINA RESULT:    -7.365      3.116      4.926
REMARK INTER + INTRA:          -7.891
REMARK INTER:                  -7.784
REMARK INTRA:                  -0.107
REMARK UNBOUND:                -0.095
REMARK SMILES CN1C[C@H](C(N)=O)C=C2c3cccc4[nH]cc(c34)C[C@H]21
REMARK SMILES IDX 2 1 15 2 20 3 9 4 19 5 3 6 4 7 17 8 10 9 18 10 8 11 14 12
REMARK SMILES IDX 1 13 16 14 11 15 13 16 12 17 5 19 7 20 6 21
REMARK H PARENT 15 18 6 22 6 23
ROOT
ATOM      1  N   UNL     1      24.122 -27.092  89.509  1.00  0.00    -0.298 NA
ATOM      2  N   UNL     1      18.157 -27.349  88.782  1.00  0.00    -0.361 N 
ATOM      3  C   UNL     1      22.781 -27.211  88.855  1.00  0.00     0.091 C 
ATOM      4  C   UNL     1      22.470 -26.030  87.878  1.00  0.00    -0.026 C 
ATOM      5  C   UNL     1      21.664 -27.405  89.951  1.00  0.00     0.061 C 
ATOM      6  C   UNL     1      25.132 -26.630  88.535  1.00  0.00     0.102 C 
ATOM      7  C   UNL     1      24.815 -25.207  88.044  1.00  0.00     0.115 C 
ATOM      8  C   UNL     1      20.304 -27.303  89.351  1.00  0.00    -0.020 A 
ATOM      9  C   UNL     1      21.090 -25.951  87.347  1.00  0.00    -0.011 A 
ATOM     10  C   UNL     1      20.134 -26.601  88.138  1.00  0.00     0.010 A 
ATOM     11  C   UNL     1      23.395 -25.110  87.545  1.00  0.00    -0.007 C 
ATOM     12  C   UNL     1      18.794 -26.636  87.790  1.00  0.00     0.046 A 
ATOM     13  C   UNL     1      24.555 -28.369  90.085  1.00  0.00     0.106 C 
ATOM     14  C   UNL     1      19.065 -27.759  89.736  1.00  0.00     0.087 A 
ATOM     15  C   UNL     1      20.638 -25.334  86.175  1.00  0.00     0.009 A 
ATOM     16  C   UNL     1      18.327 -26.020  86.627  1.00  0.00     0.027 A 
ATOM     17  C   UNL     1      19.280 -25.370  85.827  1.00  0.00     0.003 A 
ATOM     18  H   UNL     1      17.165 -27.540  88.804  1.00  0.00     0.166 HD
ENDROOT
BRANCH   7  19
ATOM     19  C   UNL     1      25.791 -24.810  86.934  1.00  0.00     0.225 C 
ATOM     20  O   UNL     1      25.484 -24.622  85.762  1.00  0.00    -0.275 OA
ATOM     21  N   UNL     1      27.092 -24.662  87.334  1.00  0.00    -0.369 N 
ATOM     22  H   UNL     1      27.778 -24.447  86.620  1.00  0.00     0.159 HD
ATOM     23  H   UNL     1      27.413 -24.930  88.253  1.00  0.00     0.159 HD
ENDBRANCH   7  19
TORSDOF 1
ENDMDL
