MODEL 1
REMARK VINA RESULT:    -8.703      0.000      0.000
REMARK INTER + INTRA:          -9.318
REMARK INTER:                  -9.212
REMARK INTRA:                  -0.107
REMARK UNBOUND:                -0.107
REMARK SMILES CN1C[C@H](C(N)=O)C=C2c3cccc4[nH]cc(c34)C[C@H]21
REMARK SMILES IDX 2 1 15 2 20 3 9 4 19 5 3 6 4 7 17 8 10 9 18 10 8 11 14 12
REMARK SMILES IDX 1 13 16 14 11 15 13 16 12 17 5 19 7 20 6 21
REMARK H PARENT 15 18 6 22 6 23
ROOT
ATOM      1  N   UNL     1     128.543 133.660 118.675  1.00  0.00    -0.298 NA
ATOM      2  N   UNL     1     123.800 133.273 122.352  1.00  0.00    -0.361 N 
ATOM      3  C   UNL     1     127.420 134.059 119.580  1.00  0.00     0.091 C 
ATOM      4  C   UNL     1     127.908 134.746 120.897  1.00  0.00    -0.026 C 
ATOM      5  C   UNL     1     126.483 132.819 119.850  1.00  0.00     0.061 C 
ATOM      6  C   UNL     1     129.576 134.717 118.640  1.00  0.00     0.102 C 
ATOM      7  C   UNL     1     130.234 134.892 120.020  1.00  0.00     0.115 C 
ATOM      8  C   UNL     1     125.489 133.124 120.918  1.00  0.00    -0.020 A 
ATOM      9  C   UNL     1     126.886 134.984 121.942  1.00  0.00    -0.011 A 
ATOM     10  C   UNL     1     125.767 134.146 121.850  1.00  0.00     0.010 A 
ATOM     11  C   UNL     1     129.195 135.089 121.095  1.00  0.00    -0.007 C 
ATOM     12  C   UNL     1     124.709 134.235 122.739  1.00  0.00     0.046 A 
ATOM     13  C   UNL     1     128.072 133.401 117.312  1.00  0.00     0.106 C 
ATOM     14  C   UNL     1     124.263 132.592 121.247  1.00  0.00     0.087 A 
ATOM     15  C   UNL     1     126.895 135.928 122.976  1.00  0.00     0.009 A 
ATOM     16  C   UNL     1     124.707 135.167 123.779  1.00  0.00     0.027 A 
ATOM     17  C   UNL     1     125.823 136.013 123.875  1.00  0.00     0.003 A 
ATOM     18  H   UNL     1     122.921 133.096 122.818  1.00  0.00     0.166 HD
ENDROOT
BRANCH   7  19
ATOM     19  C   UNL     1     131.193 136.085 119.991  1.00  0.00     0.225 C 
ATOM     20  O   UNL     1     130.998 137.158 120.550  1.00  0.00    -0.275 OA
ATOM     21  N   UNL     1     132.345 135.883 119.277  1.00  0.00    -0.369 N 
ATOM     22  H   UNL     1     132.983 136.664 119.193  1.00  0.00     0.159 HD
ATOM     23  H   UNL     1     132.490 135.069 118.697  1.00  0.00     0.159 HD
ENDBRANCH   7  19
TORSDOF 1
ENDMDL
MODEL 2
REMARK VINA RESULT:    -8.689      2.320      3.612
REMARK INTER + INTRA:          -9.304
REMARK INTER:                  -9.201
REMARK INTRA:                  -0.103
REMARK UNBOUND:                -0.107
REMARK SMILES CN1C[C@H](C(N)=O)C=C2c3cccc4[nH]cc(c34)C[C@H]21
REMARK SMILES IDX 2 1 15 2 20 3 9 4 19 5 3 6 4 7 17 8 10 9 18 10 8 11 14 12
REMARK SMILES IDX 1 13 16 14 11 15 13 16 12 17 5 19 7 20 6 21
REMARK H PARENT 15 18 6 22 6 23
ROOT
ATOM      1  N   UNL     1     129.860 135.636 119.098  1.00  0.00    -0.298 NA
ATOM      2  N   UNL     1     125.828 131.423 117.625  1.00  0.00    -0.361 N 
ATOM      3  C   UNL     1     128.549 134.969 118.821  1.00  0.00     0.091 C 
ATOM      4  C   UNL     1     127.637 134.863 120.086  1.00  0.00    -0.026 C 
ATOM      5  C   UNL     1     128.794 133.574 118.127  1.00  0.00     0.061 C 
ATOM      6  C   UNL     1     129.670 136.796 119.993  1.00  0.00     0.102 C 
ATOM      7  C   UNL     1     129.163 136.350 121.375  1.00  0.00     0.115 C 
ATOM      8  C   UNL     1     127.528 132.791 118.042  1.00  0.00    -0.020 A 
ATOM      9  C   UNL     1     126.415 134.036 119.959  1.00  0.00    -0.011 A 
ATOM     10  C   UNL     1     126.478 133.075 118.941  1.00  0.00     0.010 A 
ATOM     11  C   UNL     1     127.946 135.470 121.248  1.00  0.00    -0.007 C 
ATOM     12  C   UNL     1     125.422 132.220 118.674  1.00  0.00     0.046 A 
ATOM     13  C   UNL     1     130.510 136.081 117.861  1.00  0.00     0.106 C 
ATOM     14  C   UNL     1     127.106 131.761 117.233  1.00  0.00     0.087 A 
ATOM     15  C   UNL     1     125.231 134.104 120.703  1.00  0.00     0.009 A 
ATOM     16  C   UNL     1     124.237 132.272 119.412  1.00  0.00     0.027 A 
ATOM     17  C   UNL     1     124.166 133.235 120.431  1.00  0.00     0.003 A 
ATOM     18  H   UNL     1     125.266 130.694 117.209  1.00  0.00     0.166 HD
ENDROOT
BRANCH   7  19
ATOM     19  C   UNL     1     128.838 137.578 122.230  1.00  0.00     0.225 C 
ATOM     20  O   UNL     1     128.152 137.565 123.246  1.00  0.00    -0.275 OA
ATOM     21  N   UNL     1     129.384 138.753 121.786  1.00  0.00    -0.369 N 
ATOM     22  H   UNL     1     129.153 139.596 122.297  1.00  0.00     0.159 HD
ATOM     23  H   UNL     1     129.845 138.835 120.891  1.00  0.00     0.159 HD
ENDBRANCH   7  19
TORSDOF 1
ENDMDL
MODEL 3
REMARK VINA RESULT:    -8.616      1.838      3.898
REMARK INTER + INTRA:          -9.227
REMARK INTER:                  -9.121
REMARK INTRA:                  -0.106
REMARK UNBOUND:                -0.107
REMARK SMILES CN1C[C@H](C(N)=O)C=C2c3cccc4[nH]cc(c34)C[C@H]21
REMARK SMILES IDX 2 1 15 2 20 3 9 4 19 5 3 6 4 7 17 8 10 9 18 10 8 11 14 12
REMARK SMILES IDX 1 13 16 14 11 15 13 16 12 17 5 19 7 20 6 21
REMARK H PARENT 15 18 6 22 6 23
ROOT
ATOM      1  N   UNL     1     127.712 136.137 121.557  1.00  0.00    -0.298 NA
ATOM      2  N   UNL     1     123.744 132.324 119.130  1.00  0.00    -0.361 N 
ATOM      3  C   UNL     1     127.120 134.887 120.985  1.00  0.00     0.091 C 
ATOM      4  C   UNL     1     127.790 134.454 119.640  1.00  0.00    -0.026 C 
ATOM      5  C   UNL     1     125.555 135.041 120.865  1.00  0.00     0.061 C 
ATOM      6  C   UNL     1     129.183 136.124 121.414  1.00  0.00     0.102 C 
ATOM      7  C   UNL     1     129.593 136.146 119.931  1.00  0.00     0.115 C 
ATOM      8  C   UNL     1     124.965 133.909 120.096  1.00  0.00    -0.020 A 
ATOM      9  C   UNL     1     127.135 133.353 118.895  1.00  0.00    -0.011 A 
ATOM     10  C   UNL     1     125.778 133.184 119.198  1.00  0.00     0.010 A 
ATOM     11  C   UNL     1     128.894 135.056 119.158  1.00  0.00    -0.007 C 
ATOM     12  C   UNL     1     125.011 132.198 118.601  1.00  0.00     0.046 A 
ATOM     13  C   UNL     1     127.366 136.296 122.973  1.00  0.00     0.106 C 
ATOM     14  C   UNL     1     123.704 133.361 120.039  1.00  0.00     0.087 A 
ATOM     15  C   UNL     1     127.696 132.476 117.958  1.00  0.00     0.009 A 
ATOM     16  C   UNL     1     125.554 131.320 117.662  1.00  0.00     0.027 A 
ATOM     17  C   UNL     1     126.915 131.480 117.356  1.00  0.00     0.003 A 
ATOM     18  H   UNL     1     122.959 131.739 118.881  1.00  0.00     0.166 HD
ENDROOT
BRANCH   7  19
ATOM     19  C   UNL     1     131.110 135.987 119.809  1.00  0.00     0.225 C 
ATOM     20  O   UNL     1     131.676 135.157 119.106  1.00  0.00    -0.275 OA
ATOM     21  N   UNL     1     131.846 136.867 120.558  1.00  0.00    -0.369 N 
ATOM     22  H   UNL     1     132.853 136.764 120.542  1.00  0.00     0.159 HD
ATOM     23  H   UNL     1     131.429 137.478 121.245  1.00  0.00     0.159 HD
ENDBRANCH   7  19
TORSDOF 1
ENDMDL
MODEL 4
REMARK VINA RESULT:    -8.579      2.487      5.536
REMARK INTER + INTRA:          -9.187
REMARK INTER:                  -9.081
REMARK INTRA:                  -0.107
REMARK UNBOUND:                -0.107
REMARK SMILES CN1C[C@H](C(N)=O)C=C2c3cccc4[nH]cc(c34)C[C@H]21
REMARK SMILES IDX 2 1 15 2 20 3 9 4 19 5 3 6 4 7 17 8 10 9 18 10 8 11 14 12
REMARK SMILES IDX 1 13 16 14 11 15 13 16 12 17 5 19 7 20 6 21
REMARK H PARENT 15 18 6 22 6 23
ROOT
ATOM      1  N   UNL     1     125.690 132.644 119.053  1.00  0.00    -0.298 NA
ATOM      2  N   UNL     1     130.332 136.438 118.565  1.00  0.00    -0.361 N 
ATOM      3  C   UNL     1     126.898 133.453 119.409  1.00  0.00     0.091 C 
ATOM      4  C   UNL     1     126.607 134.545 120.490  1.00  0.00    -0.026 C 
ATOM      5  C   UNL     1     127.548 134.049 118.101  1.00  0.00     0.061 C 
ATOM      6  C   UNL     1     124.912 132.319 120.267  1.00  0.00     0.102 C 
ATOM      7  C   UNL     1     124.346 133.592 120.917  1.00  0.00     0.115 C 
ATOM      8  C   UNL     1     128.613 135.036 118.436  1.00  0.00    -0.020 A 
ATOM      9  C   UNL     1     127.684 135.528 120.750  1.00  0.00    -0.011 A 
ATOM     10  C   UNL     1     128.590 135.678 119.693  1.00  0.00     0.010 A 
ATOM     11  C   UNL     1     125.431 134.615 121.143  1.00  0.00    -0.007 C 
ATOM     12  C   UNL     1     129.665 136.548 119.766  1.00  0.00     0.046 A 
ATOM     13  C   UNL     1     126.058 131.401 118.368  1.00  0.00     0.106 C 
ATOM     14  C   UNL     1     129.701 135.522 117.749  1.00  0.00     0.087 A 
ATOM     15  C   UNL     1     127.908 136.295 121.900  1.00  0.00     0.009 A 
ATOM     16  C   UNL     1     129.898 137.325 120.903  1.00  0.00     0.027 A 
ATOM     17  C   UNL     1     128.996 137.176 121.969  1.00  0.00     0.003 A 
ATOM     18  H   UNL     1     131.162 136.958 118.321  1.00  0.00     0.166 HD
ENDROOT
BRANCH   7  19
ATOM     19  C   UNL     1     123.670 133.241 122.245  1.00  0.00     0.225 C 
ATOM     20  O   UNL     1     124.059 133.604 123.350  1.00  0.00    -0.275 OA
ATOM     21  N   UNL     1     122.545 132.468 122.135  1.00  0.00    -0.369 N 
ATOM     22  H   UNL     1     122.096 132.174 122.993  1.00  0.00     0.159 HD
ATOM     23  H   UNL     1     122.261 132.041 121.264  1.00  0.00     0.159 HD
ENDBRANCH   7  19
TORSDOF 1
ENDMDL
MODEL 5
REMARK VINA RESULT:    -8.578      2.923      4.955
REMARK INTER + INTRA:          -9.187
REMARK INTER:                  -9.072
REMARK INTRA:                  -0.115
REMARK UNBOUND:                -0.107
REMARK SMILES CN1C[C@H](C(N)=O)C=C2c3cccc4[nH]cc(c34)C[C@H]21
REMARK SMILES IDX 2 1 15 2 20 3 9 4 19 5 3 6 4 7 17 8 10 9 18 10 8 11 14 12
REMARK SMILES IDX 1 13 16 14 11 15 13 16 12 17 5 19 7 20 6 21
REMARK H PARENT 15 18 6 22 6 23
ROOT
ATOM      1  N   UNL     1     124.273 132.640 120.905  1.00  0.00    -0.298 NA
ATOM      2  N   UNL     1     127.282 137.026 123.713  1.00  0.00    -0.361 N 
ATOM      3  C   UNL     1     125.067 133.888 121.133  1.00  0.00     0.091 C 
ATOM      4  C   UNL     1     126.495 133.829 120.500  1.00  0.00    -0.026 C 
ATOM      5  C   UNL     1     125.096 134.232 122.672  1.00  0.00     0.061 C 
ATOM      6  C   UNL     1     124.469 132.149 119.525  1.00  0.00     0.102 C 
ATOM      7  C   UNL     1     125.929 131.726 119.292  1.00  0.00     0.115 C 
ATOM      8  C   UNL     1     126.058 135.334 122.954  1.00  0.00    -0.020 A 
ATOM      9  C   UNL     1     127.425 134.928 120.850  1.00  0.00    -0.011 A 
ATOM     10  C   UNL     1     127.114 135.580 122.050  1.00  0.00     0.010 A 
ATOM     11  C   UNL     1     126.883 132.824 119.691  1.00  0.00    -0.007 C 
ATOM     12  C   UNL     1     127.871 136.636 122.528  1.00  0.00     0.046 A 
ATOM     13  C   UNL     1     122.843 132.861 121.140  1.00  0.00     0.106 C 
ATOM     14  C   UNL     1     126.180 136.242 123.981  1.00  0.00     0.087 A 
ATOM     15  C   UNL     1     128.540 135.390 120.141  1.00  0.00     0.009 A 
ATOM     16  C   UNL     1     128.989 137.105 121.836  1.00  0.00     0.027 A 
ATOM     17  C   UNL     1     129.305 136.458 120.630  1.00  0.00     0.003 A 
ATOM     18  H   UNL     1     127.616 137.779 124.298  1.00  0.00     0.166 HD
ENDROOT
BRANCH   7  19
ATOM     19  C   UNL     1     126.136 131.359 117.820  1.00  0.00     0.225 C 
ATOM     20  O   UNL     1     125.355 130.699 117.144  1.00  0.00    -0.275 OA
ATOM     21  N   UNL     1     127.294 131.835 117.263  1.00  0.00    -0.369 N 
ATOM     22  H   UNL     1     127.491 131.573 116.305  1.00  0.00     0.159 HD
ATOM     23  H   UNL     1     128.023 132.269 117.810  1.00  0.00     0.159 HD
ENDBRANCH   7  19
TORSDOF 1
ENDMDL
MODEL 6
REMARK VINA RESULT:    -8.566      2.348      2.845
REMARK INTER + INTRA:          -9.173
REMARK INTER:                  -9.050
REMARK INTRA:                  -0.123
REMARK UNBOUND:                -0.107
REMARK SMILES CN1C[C@H](C(N)=O)C=C2c3cccc4[nH]cc(c34)C[C@H]21
REMARK SMILES IDX 2 1 15 2 20 3 9 4 19 5 3 6 4 7 17 8 10 9 18 10 8 11 14 12
REMARK SMILES IDX 1 13 16 14 11 15 13 16 12 17 5 19 7 20 6 21
REMARK H PARENT 15 18 6 22 6 23
ROOT
ATOM      1  N   UNL     1     128.462 136.808 118.314  1.00  0.00    -0.298 NA
ATOM      2  N   UNL     1     125.782 131.693 119.994  1.00  0.00    -0.361 N 
ATOM      3  C   UNL     1     127.639 135.835 119.098  1.00  0.00     0.091 C 
ATOM      4  C   UNL     1     128.209 135.564 120.529  1.00  0.00    -0.026 C 
ATOM      5  C   UNL     1     127.433 134.512 118.264  1.00  0.00     0.061 C 
ATOM      6  C   UNL     1     128.902 137.924 119.177  1.00  0.00     0.102 C 
ATOM      7  C   UNL     1     129.845 137.426 120.286  1.00  0.00     0.115 C 
ATOM      8  C   UNL     1     126.812 133.446 119.099  1.00  0.00    -0.020 A 
ATOM      9  C   UNL     1     127.584 134.462 121.297  1.00  0.00    -0.011 A 
ATOM     10  C   UNL     1     126.940 133.505 120.503  1.00  0.00     0.010 A 
ATOM     11  C   UNL     1     129.232 136.273 121.042  1.00  0.00    -0.007 C 
ATOM     12  C   UNL     1     126.295 132.410 121.054  1.00  0.00     0.046 A 
ATOM     13  C   UNL     1     127.717 137.346 117.172  1.00  0.00     0.106 C 
ATOM     14  C   UNL     1     126.091 132.313 118.802  1.00  0.00     0.087 A 
ATOM     15  C   UNL     1     127.549 134.273 122.684  1.00  0.00     0.009 A 
ATOM     16  C   UNL     1     126.256 132.205 122.435  1.00  0.00     0.027 A 
ATOM     17  C   UNL     1     126.896 133.163 123.237  1.00  0.00     0.003 A 
ATOM     18  H   UNL     1     125.258 130.834 120.084  1.00  0.00     0.166 HD
ENDROOT
BRANCH   7  19
ATOM     19  C   UNL     1     130.169 138.572 121.247  1.00  0.00     0.225 C 
ATOM     20  O   UNL     1     131.156 139.295 121.171  1.00  0.00    -0.275 OA
ATOM     21  N   UNL     1     129.252 138.767 122.246  1.00  0.00    -0.369 N 
ATOM     22  H   UNL     1     129.454 139.484 122.931  1.00  0.00     0.159 HD
ATOM     23  H   UNL     1     128.497 138.120 122.424  1.00  0.00     0.159 HD
ENDBRANCH   7  19
TORSDOF 1
ENDMDL
MODEL 7
REMARK VINA RESULT:    -8.532      3.854      7.402
REMARK INTER + INTRA:          -9.138
REMARK INTER:                  -9.032
REMARK INTRA:                  -0.105
REMARK UNBOUND:                -0.107
REMARK SMILES CN1C[C@H](C(N)=O)C=C2c3cccc4[nH]cc(c34)C[C@H]21
REMARK SMILES IDX 2 1 15 2 20 3 9 4 19 5 3 6 4 7 17 8 10 9 18 10 8 11 14 12
REMARK SMILES IDX 1 13 16 14 11 15 13 16 12 17 5 19 7 20 6 21
REMARK H PARENT 15 18 6 22 6 23
ROOT
ATOM      1  N   UNL     1     124.800 136.327 125.622  1.00  0.00    -0.298 NA
ATOM      2  N   UNL     1     126.302 134.570 120.070  1.00  0.00    -0.361 N 
ATOM      3  C   UNL     1     124.680 135.931 124.184  1.00  0.00     0.091 C 
ATOM      4  C   UNL     1     123.878 134.604 123.980  1.00  0.00    -0.026 C 
ATOM      5  C   UNL     1     126.110 135.887 123.519  1.00  0.00     0.061 C 
ATOM      6  C   UNL     1     123.521 136.099 126.328  1.00  0.00     0.102 C 
ATOM      7  C   UNL     1     123.173 134.601 126.368  1.00  0.00     0.115 C 
ATOM      8  C   UNL     1     126.047 135.283 122.158  1.00  0.00    -0.020 A 
ATOM      9  C   UNL     1     123.888 134.023 122.617  1.00  0.00    -0.011 A 
ATOM     10  C   UNL     1     124.977 134.423 121.832  1.00  0.00     0.010 A 
ATOM     11  C   UNL     1     123.226 133.995 124.988  1.00  0.00    -0.007 C 
ATOM     12  C   UNL     1     125.141 133.984 120.529  1.00  0.00     0.046 A 
ATOM     13  C   UNL     1     125.184 137.735 125.762  1.00  0.00     0.106 C 
ATOM     14  C   UNL     1     126.861 135.361 121.052  1.00  0.00     0.087 A 
ATOM     15  C   UNL     1     122.958 133.157 122.029  1.00  0.00     0.009 A 
ATOM     16  C   UNL     1     124.227 133.115 119.930  1.00  0.00     0.027 A 
ATOM     17  C   UNL     1     123.130 132.714 120.710  1.00  0.00     0.003 A 
ATOM     18  H   UNL     1     126.685 134.434 119.145  1.00  0.00     0.166 HD
ENDROOT
BRANCH   7  19
ATOM     19  C   UNL     1     121.780 134.408 126.974  1.00  0.00     0.225 C 
ATOM     20  O   UNL     1     120.923 133.648 126.538  1.00  0.00    -0.275 OA
ATOM     21  N   UNL     1     121.527 135.159 128.091  1.00  0.00    -0.369 N 
ATOM     22  H   UNL     1     120.600 135.096 128.494  1.00  0.00     0.159 HD
ATOM     23  H   UNL     1     122.149 135.888 128.410  1.00  0.00     0.159 HD
ENDBRANCH   7  19
TORSDOF 1
ENDMDL
MODEL 8
REMARK VINA RESULT:    -8.509      1.868      2.008
REMARK INTER + INTRA:          -9.113
REMARK INTER:                  -8.997
REMARK INTRA:                  -0.116
REMARK UNBOUND:                -0.107
REMARK SMILES CN1C[C@H](C(N)=O)C=C2c3cccc4[nH]cc(c34)C[C@H]21
REMARK SMILES IDX 2 1 15 2 20 3 9 4 19 5 3 6 4 7 17 8 10 9 18 10 8 11 14 12
REMARK SMILES IDX 1 13 16 14 11 15 13 16 12 17 5 19 7 20 6 21
REMARK H PARENT 15 18 6 22 6 23
ROOT
ATOM      1  N   UNL     1     128.783 135.599 119.067  1.00  0.00    -0.298 NA
ATOM      2  N   UNL     1     124.288 132.384 121.438  1.00  0.00    -0.361 N 
ATOM      3  C   UNL     1     127.497 135.258 119.751  1.00  0.00     0.091 C 
ATOM      4  C   UNL     1     127.462 135.708 121.248  1.00  0.00    -0.026 C 
ATOM      5  C   UNL     1     127.182 133.724 119.568  1.00  0.00     0.061 C 
ATOM      6  C   UNL     1     129.236 136.949 119.463  1.00  0.00     0.102 C 
ATOM      7  C   UNL     1     129.570 137.002 120.963  1.00  0.00     0.115 C 
ATOM      8  C   UNL     1     126.032 133.310 120.420  1.00  0.00    -0.020 A 
ATOM      9  C   UNL     1     126.319 135.230 122.060  1.00  0.00    -0.011 A 
ATOM     10  C   UNL     1     125.709 134.071 121.564  1.00  0.00     0.010 A 
ATOM     11  C   UNL     1     128.427 136.473 121.793  1.00  0.00    -0.007 C 
ATOM     12  C   UNL     1     124.620 133.489 122.192  1.00  0.00     0.046 A 
ATOM     13  C   UNL     1     128.649 135.543 117.608  1.00  0.00     0.106 C 
ATOM     14  C   UNL     1     125.139 132.265 120.359  1.00  0.00     0.087 A 
ATOM     15  C   UNL     1     125.780 135.788 123.226  1.00  0.00     0.009 A 
ATOM     16  C   UNL     1     124.076 134.030 123.358  1.00  0.00     0.027 A 
ATOM     17  C   UNL     1     124.680 135.195 123.859  1.00  0.00     0.003 A 
ATOM     18  H   UNL     1     123.529 131.752 121.652  1.00  0.00     0.166 HD
ENDROOT
BRANCH   7  19
ATOM     19  C   UNL     1     129.896 138.440 121.373  1.00  0.00     0.225 C 
ATOM     20  O   UNL     1     130.693 139.172 120.796  1.00  0.00    -0.275 OA
ATOM     21  N   UNL     1     129.215 138.898 122.469  1.00  0.00    -0.369 N 
ATOM     22  H   UNL     1     129.437 139.827 122.802  1.00  0.00     0.159 HD
ATOM     23  H   UNL     1     128.650 138.294 123.050  1.00  0.00     0.159 HD
ENDBRANCH   7  19
TORSDOF 1
ENDMDL
MODEL 9
REMARK VINA RESULT:    -8.444      2.137      5.448
REMARK INTER + INTRA:          -9.044
REMARK INTER:                  -8.949
REMARK INTRA:                  -0.095
REMARK UNBOUND:                -0.107
REMARK SMILES CN1C[C@H](C(N)=O)C=C2c3cccc4[nH]cc(c34)C[C@H]21
REMARK SMILES IDX 2 1 15 2 20 3 9 4 19 5 3 6 4 7 17 8 10 9 18 10 8 11 14 12
REMARK SMILES IDX 1 13 16 14 11 15 13 16 12 17 5 19 7 20 6 21
REMARK H PARENT 15 18 6 22 6 23
ROOT
ATOM      1  N   UNL     1     124.523 133.531 121.231  1.00  0.00    -0.298 NA
ATOM      2  N   UNL     1     129.207 133.607 117.460  1.00  0.00    -0.361 N 
ATOM      3  C   UNL     1     125.931 133.492 120.724  1.00  0.00     0.091 C 
ATOM      4  C   UNL     1     126.793 134.698 121.220  1.00  0.00    -0.026 C 
ATOM      5  C   UNL     1     125.931 133.347 119.154  1.00  0.00     0.061 C 
ATOM      6  C   UNL     1     124.497 133.948 122.649  1.00  0.00     0.102 C 
ATOM      7  C   UNL     1     125.005 135.390 122.809  1.00  0.00     0.115 C 
ATOM      8  C   UNL     1     127.303 133.530 118.602  1.00  0.00    -0.020 A 
ATOM      9  C   UNL     1     128.131 134.858 120.605  1.00  0.00    -0.011 A 
ATOM     10  C   UNL     1     128.259 134.253 119.348  1.00  0.00     0.010 A 
ATOM     11  C   UNL     1     126.347 135.570 122.144  1.00  0.00    -0.007 C 
ATOM     12  C   UNL     1     129.443 134.295 118.631  1.00  0.00     0.046 A 
ATOM     13  C   UNL     1     123.867 132.226 121.099  1.00  0.00     0.106 C 
ATOM     14  C   UNL     1     127.911 133.138 117.431  1.00  0.00     0.087 A 
ATOM     15  C   UNL     1     129.258 135.511 121.119  1.00  0.00     0.009 A 
ATOM     16  C   UNL     1     130.573 134.947 119.127  1.00  0.00     0.027 A 
ATOM     17  C   UNL     1     130.454 135.553 120.388  1.00  0.00     0.003 A 
ATOM     18  H   UNL     1     129.891 133.471 116.728  1.00  0.00     0.166 HD
ENDROOT
BRANCH   7  19
ATOM     19  C   UNL     1     125.103 135.745 124.296  1.00  0.00     0.225 C 
ATOM     20  O   UNL     1     125.383 134.954 125.190  1.00  0.00    -0.275 OA
ATOM     21  N   UNL     1     124.856 137.058 124.594  1.00  0.00    -0.369 N 
ATOM     22  H   UNL     1     124.864 137.323 125.571  1.00  0.00     0.159 HD
ATOM     23  H   UNL     1     124.498 137.713 123.914  1.00  0.00     0.159 HD
ENDBRANCH   7  19
TORSDOF 1
ENDMDL
MODEL 10
REMARK VINA RESULT:    -8.399      2.653      5.824
REMARK INTER + INTRA:          -8.997
REMARK INTER:                  -8.878
REMARK INTRA:                  -0.119
REMARK UNBOUND:                -0.107
REMARK SMILES CN1C[C@H](C(N)=O)C=C2c3cccc4[nH]cc(c34)C[C@H]21
REMARK SMILES IDX 2 1 15 2 20 3 9 4 19 5 3 6 4 7 17 8 10 9 18 10 8 11 14 12
REMARK SMILES IDX 1 13 16 14 11 15 13 16 12 17 5 19 7 20 6 21
REMARK H PARENT 15 18 6 22 6 23
ROOT
ATOM      1  N   UNL     1     127.912 135.616 122.679  1.00  0.00    -0.298 NA
ATOM      2  N   UNL     1     128.623 133.468 117.106  1.00  0.00    -0.361 N 
ATOM      3  C   UNL     1     127.593 135.061 121.326  1.00  0.00     0.091 C 
ATOM      4  C   UNL     1     126.942 133.641 121.385  1.00  0.00    -0.026 C 
ATOM      5  C   UNL     1     128.877 135.107 120.411  1.00  0.00     0.061 C 
ATOM      6  C   UNL     1     126.818 135.323 123.628  1.00  0.00     0.102 C 
ATOM      7  C   UNL     1     126.675 133.808 123.855  1.00  0.00     0.115 C 
ATOM      8  C   UNL     1     128.652 134.361 119.140  1.00  0.00    -0.020 A 
ATOM      9  C   UNL     1     126.785 132.927 120.097  1.00  0.00    -0.011 A 
ATOM     10  C   UNL     1     127.659 133.360 119.091  1.00  0.00     0.010 A 
ATOM     11  C   UNL     1     126.560 133.072 122.544  1.00  0.00    -0.007 C 
ATOM     12  C   UNL     1     127.646 132.809 117.821  1.00  0.00     0.046 A 
ATOM     13  C   UNL     1     128.134 137.064 122.629  1.00  0.00     0.106 C 
ATOM     14  C   UNL     1     129.241 134.413 117.898  1.00  0.00     0.087 A 
ATOM     15  C   UNL     1     125.884 131.907 119.766  1.00  0.00     0.009 A 
ATOM     16  C   UNL     1     126.757 131.788 117.478  1.00  0.00     0.027 A 
ATOM     17  C   UNL     1     125.875 131.351 118.479  1.00  0.00     0.003 A 
ATOM     18  H   UNL     1     128.852 133.280 116.140  1.00  0.00     0.166 HD
ENDROOT
BRANCH   7  19
ATOM     19  C   UNL     1     125.447 133.527 124.725  1.00  0.00     0.225 C 
ATOM     20  O   UNL     1     125.468 132.941 125.802  1.00  0.00    -0.275 OA
ATOM     21  N   UNL     1     124.262 133.992 124.221  1.00  0.00    -0.369 N 
ATOM     22  H   UNL     1     123.420 133.784 124.743  1.00  0.00     0.159 HD
ATOM     23  H   UNL     1     124.176 134.363 123.285  1.00  0.00     0.159 HD
ENDBRANCH   7  19
TORSDOF 1
ENDMDL
MODEL 11
REMARK VINA RESULT:    -8.356      2.157      4.797
REMARK INTER + INTRA:          -8.951
REMARK INTER:                  -8.834
REMARK INTRA:                  -0.117
REMARK UNBOUND:                -0.107
REMARK SMILES CN1C[C@H](C(N)=O)C=C2c3cccc4[nH]cc(c34)C[C@H]21
REMARK SMILES IDX 2 1 15 2 20 3 9 4 19 5 3 6 4 7 17 8 10 9 18 10 8 11 14 12
REMARK SMILES IDX 1 13 16 14 11 15 13 16 12 17 5 19 7 20 6 21
REMARK H PARENT 15 18 6 22 6 23
ROOT
ATOM      1  N   UNL     1     129.178 135.867 121.027  1.00  0.00    -0.298 NA
ATOM      2  N   UNL     1     127.261 131.741 117.094  1.00  0.00    -0.361 N 
ATOM      3  C   UNL     1     128.293 135.125 120.076  1.00  0.00     0.091 C 
ATOM      4  C   UNL     1     127.039 134.498 120.769  1.00  0.00    -0.026 C 
ATOM      5  C   UNL     1     129.139 134.063 119.274  1.00  0.00     0.061 C 
ATOM      6  C   UNL     1     128.367 136.655 121.979  1.00  0.00     0.102 C 
ATOM      7  C   UNL     1     127.520 135.735 122.876  1.00  0.00     0.115 C 
ATOM      8  C   UNL     1     128.253 133.160 118.485  1.00  0.00    -0.020 A 
ATOM      9  C   UNL     1     126.220 133.573 119.953  1.00  0.00    -0.011 A 
ATOM     10  C   UNL     1     126.910 132.991 118.882  1.00  0.00     0.010 A 
ATOM     11  C   UNL     1     126.719 134.760 122.051  1.00  0.00    -0.007 C 
ATOM     12  C   UNL     1     126.298 132.107 118.009  1.00  0.00     0.046 A 
ATOM     13  C   UNL     1     130.097 136.763 120.320  1.00  0.00     0.106 C 
ATOM     14  C   UNL     1     128.454 132.375 117.374  1.00  0.00     0.087 A 
ATOM     15  C   UNL     1     124.872 133.227 120.110  1.00  0.00     0.009 A 
ATOM     16  C   UNL     1     124.956 131.748 118.156  1.00  0.00     0.027 A 
ATOM     17  C   UNL     1     124.257 132.331 119.225  1.00  0.00     0.003 A 
ATOM     18  H   UNL     1     127.111 131.097 116.330  1.00  0.00     0.166 HD
ENDROOT
BRANCH   7  19
ATOM     19  C   UNL     1     126.586 136.577 123.749  1.00  0.00     0.225 C 
ATOM     20  O   UNL     1     126.939 137.521 124.449  1.00  0.00    -0.275 OA
ATOM     21  N   UNL     1     125.267 136.211 123.706  1.00  0.00    -0.369 N 
ATOM     22  H   UNL     1     124.625 136.712 124.306  1.00  0.00     0.159 HD
ATOM     23  H   UNL     1     124.952 135.367 123.249  1.00  0.00     0.159 HD
ENDBRANCH   7  19
TORSDOF 1
ENDMDL
MODEL 12
REMARK VINA RESULT:    -8.341      2.050      3.501
REMARK INTER + INTRA:          -8.935
REMARK INTER:                  -8.831
REMARK INTRA:                  -0.104
REMARK UNBOUND:                -0.107
REMARK SMILES CN1C[C@H](C(N)=O)C=C2c3cccc4[nH]cc(c34)C[C@H]21
REMARK SMILES IDX 2 1 15 2 20 3 9 4 19 5 3 6 4 7 17 8 10 9 18 10 8 11 14 12
REMARK SMILES IDX 1 13 16 14 11 15 13 16 12 17 5 19 7 20 6 21
REMARK H PARENT 15 18 6 22 6 23
ROOT
ATOM      1  N   UNL     1     128.516 136.630 121.068  1.00  0.00    -0.298 NA
ATOM      2  N   UNL     1     123.652 133.684 123.028  1.00  0.00    -0.361 N 
ATOM      3  C   UNL     1     127.510 135.541 121.273  1.00  0.00     0.091 C 
ATOM      4  C   UNL     1     126.751 135.154 119.962  1.00  0.00    -0.026 C 
ATOM      5  C   UNL     1     126.534 135.927 122.451  1.00  0.00     0.061 C 
ATOM      6  C   UNL     1     129.249 136.422 119.802  1.00  0.00     0.102 C 
ATOM      7  C   UNL     1     128.306 136.535 118.592  1.00  0.00     0.115 C 
ATOM      8  C   UNL     1     125.391 134.974 122.531  1.00  0.00    -0.020 A 
ATOM      9  C   UNL     1     125.595 134.239 120.107  1.00  0.00    -0.011 A 
ATOM     10  C   UNL     1     125.025 134.235 121.386  1.00  0.00     0.010 A 
ATOM     11  C   UNL     1     127.104 135.639 118.756  1.00  0.00    -0.007 C 
ATOM     12  C   UNL     1     123.941 133.433 121.704  1.00  0.00     0.046 A 
ATOM     13  C   UNL     1     129.473 136.694 122.176  1.00  0.00     0.106 C 
ATOM     14  C   UNL     1     124.527 134.619 123.541  1.00  0.00     0.087 A 
ATOM     15  C   UNL     1     125.026 133.389 119.150  1.00  0.00     0.009 A 
ATOM     16  C   UNL     1     123.360 132.585 120.759  1.00  0.00     0.027 A 
ATOM     17  C   UNL     1     123.929 132.580 119.475  1.00  0.00     0.003 A 
ATOM     18  H   UNL     1     122.903 133.245 123.544  1.00  0.00     0.166 HD
ENDROOT
BRANCH   7  19
ATOM     19  C   UNL     1     129.060 136.174 117.309  1.00  0.00     0.225 C 
ATOM     20  O   UNL     1     128.537 135.767 116.277  1.00  0.00    -0.275 OA
ATOM     21  N   UNL     1     130.418 136.343 117.370  1.00  0.00    -0.369 N 
ATOM     22  H   UNL     1     130.957 136.070 116.558  1.00  0.00     0.159 HD
ATOM     23  H   UNL     1     130.902 136.550 118.231  1.00  0.00     0.159 HD
ENDBRANCH   7  19
TORSDOF 1
ENDMDL
MODEL 13
REMARK VINA RESULT:    -8.228      2.108      5.517
REMARK INTER + INTRA:          -8.816
REMARK INTER:                  -8.713
REMARK INTRA:                  -0.103
REMARK UNBOUND:                -0.107
REMARK SMILES CN1C[C@H](C(N)=O)C=C2c3cccc4[nH]cc(c34)C[C@H]21
REMARK SMILES IDX 2 1 15 2 20 3 9 4 19 5 3 6 4 7 17 8 10 9 18 10 8 11 14 12
REMARK SMILES IDX 1 13 16 14 11 15 13 16 12 17 5 19 7 20 6 21
REMARK H PARENT 15 18 6 22 6 23
ROOT
ATOM      1  N   UNL     1     125.066 134.097 120.817  1.00  0.00    -0.298 NA
ATOM      2  N   UNL     1     129.732 135.522 117.300  1.00  0.00    -0.361 N 
ATOM      3  C   UNL     1     126.465 134.189 120.292  1.00  0.00     0.091 C 
ATOM      4  C   UNL     1     127.424 134.979 121.241  1.00  0.00    -0.026 C 
ATOM      5  C   UNL     1     126.450 134.765 118.824  1.00  0.00     0.061 C 
ATOM      6  C   UNL     1     125.077 133.834 122.271  1.00  0.00     0.102 C 
ATOM      7  C   UNL     1     125.702 135.011 123.040  1.00  0.00     0.115 C 
ATOM      8  C   UNL     1     127.831 135.077 118.359  1.00  0.00    -0.020 A 
ATOM      9  C   UNL     1     128.769 135.302 120.711  1.00  0.00    -0.011 A 
ATOM     10  C   UNL     1     128.844 135.318 119.312  1.00  0.00     0.010 A 
ATOM     11  C   UNL     1     127.052 135.374 122.474  1.00  0.00    -0.007 C 
ATOM     12  C   UNL     1     130.025 135.592 118.645  1.00  0.00     0.046 A 
ATOM     13  C   UNL     1     124.306 133.041 120.141  1.00  0.00     0.106 C 
ATOM     14  C   UNL     1     128.402 135.209 117.114  1.00  0.00     0.087 A 
ATOM     15  C   UNL     1     129.946 135.573 121.419  1.00  0.00     0.009 A 
ATOM     16  C   UNL     1     131.206 135.870 119.336  1.00  0.00     0.027 A 
ATOM     17  C   UNL     1     131.139 135.852 120.739  1.00  0.00     0.003 A 
ATOM     18  H   UNL     1     130.400 135.680 116.559  1.00  0.00     0.166 HD
ENDROOT
BRANCH   7  19
ATOM     19  C   UNL     1     125.832 134.653 124.523  1.00  0.00     0.225 C 
ATOM     20  O   UNL     1     126.563 135.226 125.323  1.00  0.00    -0.275 OA
ATOM     21  N   UNL     1     125.045 133.611 124.937  1.00  0.00    -0.369 N 
ATOM     22  H   UNL     1     125.138 133.312 125.900  1.00  0.00     0.159 HD
ATOM     23  H   UNL     1     124.528 133.030 124.293  1.00  0.00     0.159 HD
ENDBRANCH   7  19
TORSDOF 1
ENDMDL
MODEL 14
REMARK VINA RESULT:    -8.213      3.557      6.888
REMARK INTER + INTRA:          -8.800
REMARK INTER:                  -8.685
REMARK INTRA:                  -0.114
REMARK UNBOUND:                -0.107
REMARK SMILES CN1C[C@H](C(N)=O)C=C2c3cccc4[nH]cc(c34)C[C@H]21
REMARK SMILES IDX 2 1 15 2 20 3 9 4 19 5 3 6 4 7 17 8 10 9 18 10 8 11 14 12
REMARK SMILES IDX 1 13 16 14 11 15 13 16 12 17 5 19 7 20 6 21
REMARK H PARENT 15 18 6 22 6 23
ROOT
ATOM      1  N   UNL     1     125.655 136.282 125.178  1.00  0.00    -0.298 NA
ATOM      2  N   UNL     1     126.545 134.526 119.495  1.00  0.00    -0.361 N 
ATOM      3  C   UNL     1     125.382 135.906 123.756  1.00  0.00     0.091 C 
ATOM      4  C   UNL     1     124.510 134.615 123.620  1.00  0.00    -0.026 C 
ATOM      5  C   UNL     1     126.739 135.812 122.956  1.00  0.00     0.061 C 
ATOM      6  C   UNL     1     124.442 136.098 126.002  1.00  0.00     0.102 C 
ATOM      7  C   UNL     1     124.037 134.615 126.065  1.00  0.00     0.115 C 
ATOM      8  C   UNL     1     126.521 135.226 121.604  1.00  0.00    -0.020 A 
ATOM      9  C   UNL     1     124.365 134.050 122.259  1.00  0.00    -0.011 A 
ATOM     10  C   UNL     1     125.390 134.413 121.376  1.00  0.00     0.010 A 
ATOM     11  C   UNL     1     123.933 134.022 124.682  1.00  0.00    -0.007 C 
ATOM     12  C   UNL     1     125.411 133.983 120.060  1.00  0.00     0.046 A 
ATOM     13  C   UNL     1     126.108 137.671 125.291  1.00  0.00     0.106 C 
ATOM     14  C   UNL     1     127.228 135.283 120.425  1.00  0.00     0.087 A 
ATOM     15  C   UNL     1     123.349 133.228 121.757  1.00  0.00     0.009 A 
ATOM     16  C   UNL     1     124.408 133.158 119.546  1.00  0.00     0.027 A 
ATOM     17  C   UNL     1     123.375 132.793 120.425  1.00  0.00     0.003 A 
ATOM     18  H   UNL     1     126.833 134.384 118.538  1.00  0.00     0.166 HD
ENDROOT
BRANCH   7  19
ATOM     19  C   UNL     1     122.702 134.471 126.801  1.00  0.00     0.225 C 
ATOM     20  O   UNL     1     122.386 135.091 127.811  1.00  0.00    -0.275 OA
ATOM     21  N   UNL     1     121.829 133.575 126.245  1.00  0.00    -0.369 N 
ATOM     22  H   UNL     1     120.954 133.415 126.729  1.00  0.00     0.159 HD
ATOM     23  H   UNL     1     122.092 132.952 125.495  1.00  0.00     0.159 HD
ENDBRANCH   7  19
TORSDOF 1
ENDMDL
MODEL 15
REMARK VINA RESULT:    -8.178      1.830      2.102
REMARK INTER + INTRA:          -8.763
REMARK INTER:                  -8.657
REMARK INTRA:                  -0.106
REMARK UNBOUND:                -0.107
REMARK SMILES CN1C[C@H](C(N)=O)C=C2c3cccc4[nH]cc(c34)C[C@H]21
REMARK SMILES IDX 2 1 15 2 20 3 9 4 19 5 3 6 4 7 17 8 10 9 18 10 8 11 14 12
REMARK SMILES IDX 1 13 16 14 11 15 13 16 12 17 5 19 7 20 6 21
REMARK H PARENT 15 18 6 22 6 23
ROOT
ATOM      1  N   UNL     1     127.772 135.335 119.738  1.00  0.00    -0.298 NA
ATOM      2  N   UNL     1     123.037 132.969 122.593  1.00  0.00    -0.361 N 
ATOM      3  C   UNL     1     126.514 135.230 120.541  1.00  0.00     0.091 C 
ATOM      4  C   UNL     1     126.689 135.707 122.019  1.00  0.00    -0.026 C 
ATOM      5  C   UNL     1     125.933 133.766 120.437  1.00  0.00     0.061 C 
ATOM      6  C   UNL     1     128.476 136.597 120.047  1.00  0.00     0.102 C 
ATOM      7  C   UNL     1     128.948 136.622 121.511  1.00  0.00     0.115 C 
ATOM      8  C   UNL     1     124.812 133.569 121.399  1.00  0.00    -0.020 A 
ATOM      9  C   UNL     1     125.560 135.444 122.942  1.00  0.00    -0.011 A 
ATOM     10  C   UNL     1     124.724 134.395 122.539  1.00  0.00     0.010 A 
ATOM     11  C   UNL     1     127.813 136.309 122.452  1.00  0.00    -0.007 C 
ATOM     12  C   UNL     1     123.615 134.017 123.277  1.00  0.00     0.046 A 
ATOM     13  C   UNL     1     127.500 135.275 118.299  1.00  0.00     0.106 C 
ATOM     14  C   UNL     1     123.756 132.688 121.450  1.00  0.00     0.087 A 
ATOM     15  C   UNL     1     125.229 136.108 124.130  1.00  0.00     0.009 A 
ATOM     16  C   UNL     1     123.275 134.665 124.467  1.00  0.00     0.027 A 
ATOM     17  C   UNL     1     124.106 135.720 124.874  1.00  0.00     0.003 A 
ATOM     18  H   UNL     1     122.206 132.479 122.892  1.00  0.00     0.166 HD
ENDROOT
BRANCH   7  19
ATOM     19  C   UNL     1     129.544 137.993 121.842  1.00  0.00     0.225 C 
ATOM     20  O   UNL     1     129.168 138.721 122.754  1.00  0.00    -0.275 OA
ATOM     21  N   UNL     1     130.577 138.385 121.032  1.00  0.00    -0.369 N 
ATOM     22  H   UNL     1     130.966 139.306 121.188  1.00  0.00     0.159 HD
ATOM     23  H   UNL     1     130.834 137.882 120.195  1.00  0.00     0.159 HD
ENDBRANCH   7  19
TORSDOF 1
ENDMDL
MODEL 16
REMARK VINA RESULT:    -8.166      3.117      6.773
REMARK INTER + INTRA:          -8.750
REMARK INTER:                  -8.635
REMARK INTRA:                  -0.116
REMARK UNBOUND:                -0.107
REMARK SMILES CN1C[C@H](C(N)=O)C=C2c3cccc4[nH]cc(c34)C[C@H]21
REMARK SMILES IDX 2 1 15 2 20 3 9 4 19 5 3 6 4 7 17 8 10 9 18 10 8 11 14 12
REMARK SMILES IDX 1 13 16 14 11 15 13 16 12 17 5 19 7 20 6 21
REMARK H PARENT 15 18 6 22 6 23
ROOT
ATOM      1  N   UNL     1     125.396 136.080 124.918  1.00  0.00    -0.298 NA
ATOM      2  N   UNL     1     128.785 136.242 119.952  1.00  0.00    -0.361 N 
ATOM      3  C   UNL     1     125.788 136.173 123.477  1.00  0.00     0.091 C 
ATOM      4  C   UNL     1     125.256 134.979 122.619  1.00  0.00    -0.026 C 
ATOM      5  C   UNL     1     127.350 136.360 123.358  1.00  0.00     0.061 C 
ATOM      6  C   UNL     1     123.995 135.624 125.042  1.00  0.00     0.102 C 
ATOM      7  C   UNL     1     123.831 134.193 124.504  1.00  0.00     0.115 C 
ATOM      8  C   UNL     1     127.796 136.232 121.941  1.00  0.00    -0.020 A 
ATOM      9  C   UNL     1     125.767 134.875 121.233  1.00  0.00    -0.011 A 
ATOM     10  C   UNL     1     126.994 135.518 121.025  1.00  0.00     0.010 A 
ATOM     11  C   UNL     1     124.392 134.070 123.109  1.00  0.00    -0.007 C 
ATOM     12  C   UNL     1     127.616 135.529 119.788  1.00  0.00     0.046 A 
ATOM     13  C   UNL     1     125.546 137.368 125.601  1.00  0.00     0.106 C 
ATOM     14  C   UNL     1     128.904 136.674 121.256  1.00  0.00     0.087 A 
ATOM     15  C   UNL     1     125.182 134.240 120.130  1.00  0.00     0.009 A 
ATOM     16  C   UNL     1     127.049 134.896 118.681  1.00  0.00     0.027 A 
ATOM     17  C   UNL     1     125.816 134.253 118.880  1.00  0.00     0.003 A 
ATOM     18  H   UNL     1     129.456 136.417 119.218  1.00  0.00     0.166 HD
ENDROOT
BRANCH   7  19
ATOM     19  C   UNL     1     122.351 133.801 124.512  1.00  0.00     0.225 C 
ATOM     20  O   UNL     1     121.583 133.974 125.452  1.00  0.00    -0.275 OA
ATOM     21  N   UNL     1     121.900 133.223 123.355  1.00  0.00    -0.369 N 
ATOM     22  H   UNL     1     120.939 132.905 123.337  1.00  0.00     0.159 HD
ATOM     23  H   UNL     1     122.520 132.944 122.608  1.00  0.00     0.159 HD
ENDBRANCH   7  19
TORSDOF 1
ENDMDL
MODEL 17
REMARK VINA RESULT:    -8.154      3.110      5.833
REMARK INTER + INTRA:          -8.738
REMARK INTER:                  -8.642
REMARK INTRA:                  -0.096
REMARK UNBOUND:                -0.107
REMARK SMILES CN1C[C@H](C(N)=O)C=C2c3cccc4[nH]cc(c34)C[C@H]21
REMARK SMILES IDX 2 1 15 2 20 3 9 4 19 5 3 6 4 7 17 8 10 9 18 10 8 11 14 12
REMARK SMILES IDX 1 13 16 14 11 15 13 16 12 17 5 19 7 20 6 21
REMARK H PARENT 15 18 6 22 6 23
ROOT
ATOM      1  N   UNL     1     126.967 132.893 121.381  1.00  0.00    -0.298 NA
ATOM      2  N   UNL     1     129.886 138.079 120.507  1.00  0.00    -0.361 N 
ATOM      3  C   UNL     1     127.254 134.301 120.960  1.00  0.00     0.091 C 
ATOM      4  C   UNL     1     127.219 134.495 119.409  1.00  0.00    -0.026 C 
ATOM      5  C   UNL     1     128.609 134.788 121.605  1.00  0.00     0.061 C 
ATOM      6  C   UNL     1     125.868 132.327 120.572  1.00  0.00     0.102 C 
ATOM      7  C   UNL     1     126.273 132.214 119.092  1.00  0.00     0.115 C 
ATOM      8  C   UNL     1     129.033 136.096 121.031  1.00  0.00    -0.020 A 
ATOM      9  C   UNL     1     127.694 135.799 118.891  1.00  0.00    -0.011 A 
ATOM     10  C   UNL     1     128.559 136.479 119.758  1.00  0.00     0.010 A 
ATOM     11  C   UNL     1     126.801 133.527 118.572  1.00  0.00    -0.007 C 
ATOM     12  C   UNL     1     129.093 137.716 119.439  1.00  0.00     0.046 A 
ATOM     13  C   UNL     1     126.611 132.817 122.800  1.00  0.00     0.106 C 
ATOM     14  C   UNL     1     129.857 137.102 121.480  1.00  0.00     0.087 A 
ATOM     15  C   UNL     1     127.382 136.424 117.677  1.00  0.00     0.009 A 
ATOM     16  C   UNL     1     128.797 138.349 118.231  1.00  0.00     0.027 A 
ATOM     17  C   UNL     1     127.927 137.676 117.358  1.00  0.00     0.003 A 
ATOM     18  H   UNL     1     130.413 138.939 120.563  1.00  0.00     0.166 HD
ENDROOT
BRANCH   7  19
ATOM     19  C   UNL     1     125.071 131.762 118.257  1.00  0.00     0.225 C 
ATOM     20  O   UNL     1     123.908 132.085 118.468  1.00  0.00    -0.275 OA
ATOM     21  N   UNL     1     125.375 130.941 117.204  1.00  0.00    -0.369 N 
ATOM     22  H   UNL     1     124.604 130.582 116.656  1.00  0.00     0.159 HD
ATOM     23  H   UNL     1     126.295 130.547 117.069  1.00  0.00     0.159 HD
ENDBRANCH   7  19
TORSDOF 1
ENDMDL
MODEL 18
REMARK VINA RESULT:    -8.121      2.291      3.839
REMARK INTER + INTRA:          -8.703
REMARK INTER:                  -8.598
REMARK INTRA:                  -0.105
REMARK UNBOUND:                -0.107
REMARK SMILES CN1C[C@H](C(N)=O)C=C2c3cccc4[nH]cc(c34)C[C@H]21
REMARK SMILES IDX 2 1 15 2 20 3 9 4 19 5 3 6 4 7 17 8 10 9 18 10 8 11 14 12
REMARK SMILES IDX 1 13 16 14 11 15 13 16 12 17 5 19 7 20 6 21
REMARK H PARENT 15 18 6 22 6 23
ROOT
ATOM      1  N   UNL     1     128.494 134.775 120.388  1.00  0.00    -0.298 NA
ATOM      2  N   UNL     1     123.830 135.147 124.166  1.00  0.00    -0.361 N 
ATOM      3  C   UNL     1     127.346 134.374 121.259  1.00  0.00     0.091 C 
ATOM      4  C   UNL     1     126.161 133.741 120.458  1.00  0.00    -0.026 C 
ATOM      5  C   UNL     1     126.895 135.597 122.148  1.00  0.00     0.061 C 
ATOM      6  C   UNL     1     128.743 133.746 119.356  1.00  0.00     0.102 C 
ATOM      7  C   UNL     1     127.549 133.630 118.393  1.00  0.00     0.115 C 
ATOM      8  C   UNL     1     125.620 135.298 122.859  1.00  0.00    -0.020 A 
ATOM      9  C   UNL     1     124.903 133.508 121.203  1.00  0.00    -0.011 A 
ATOM     10  C   UNL     1     124.753 134.313 122.340  1.00  0.00     0.010 A 
ATOM     11  C   UNL     1     126.258 133.439 119.149  1.00  0.00    -0.007 C 
ATOM     12  C   UNL     1     123.641 134.223 123.160  1.00  0.00     0.046 A 
ATOM     13  C   UNL     1     129.717 134.980 121.169  1.00  0.00     0.106 C 
ATOM     14  C   UNL     1     125.029 135.807 123.992  1.00  0.00     0.087 A 
ATOM     15  C   UNL     1     123.877 132.597 120.924  1.00  0.00     0.009 A 
ATOM     16  C   UNL     1     122.607 133.324 122.892  1.00  0.00     0.027 A 
ATOM     17  C   UNL     1     122.752 132.511 121.756  1.00  0.00     0.003 A 
ATOM     18  H   UNL     1     123.178 135.316 124.919  1.00  0.00     0.166 HD
ENDROOT
BRANCH   7  19
ATOM     19  C   UNL     1     127.771 132.463 117.427  1.00  0.00     0.225 C 
ATOM     20  O   UNL     1     126.891 131.717 117.012  1.00  0.00    -0.275 OA
ATOM     21  N   UNL     1     129.067 132.287 117.022  1.00  0.00    -0.369 N 
ATOM     22  H   UNL     1     129.264 131.496 116.421  1.00  0.00     0.159 HD
ATOM     23  H   UNL     1     129.840 132.791 117.434  1.00  0.00     0.159 HD
ENDBRANCH   7  19
TORSDOF 1
ENDMDL
MODEL 19
REMARK VINA RESULT:    -8.115      2.749      6.382
REMARK INTER + INTRA:          -8.696
REMARK INTER:                  -8.590
REMARK INTRA:                  -0.106
REMARK UNBOUND:                -0.107
REMARK SMILES CN1C[C@H](C(N)=O)C=C2c3cccc4[nH]cc(c34)C[C@H]21
REMARK SMILES IDX 2 1 15 2 20 3 9 4 19 5 3 6 4 7 17 8 10 9 18 10 8 11 14 12
REMARK SMILES IDX 1 13 16 14 11 15 13 16 12 17 5 19 7 20 6 21
REMARK H PARENT 15 18 6 22 6 23
ROOT
ATOM      1  N   UNL     1     125.537 135.036 123.435  1.00  0.00    -0.298 NA
ATOM      2  N   UNL     1     129.984 137.627 120.323  1.00  0.00    -0.361 N 
ATOM      3  C   UNL     1     126.269 135.746 122.340  1.00  0.00     0.091 C 
ATOM      4  C   UNL     1     126.323 134.927 121.009  1.00  0.00    -0.026 C 
ATOM      5  C   UNL     1     127.697 136.184 122.845  1.00  0.00     0.061 C 
ATOM      6  C   UNL     1     124.327 134.375 122.903  1.00  0.00     0.102 C 
ATOM      7  C   UNL     1     124.698 133.266 121.904  1.00  0.00     0.115 C 
ATOM      8  C   UNL     1     128.530 136.692 121.717  1.00  0.00    -0.020 A 
ATOM      9  C   UNL     1     127.202 135.453 119.939  1.00  0.00    -0.011 A 
ATOM     10  C   UNL     1     128.225 136.292 120.399  1.00  0.00     0.010 A 
ATOM     11  C   UNL     1     125.630 133.785 120.838  1.00  0.00    -0.007 C 
ATOM     12  C   UNL     1     129.135 136.879 119.536  1.00  0.00     0.046 A 
ATOM     13  C   UNL     1     125.152 135.956 124.510  1.00  0.00     0.106 C 
ATOM     14  C   UNL     1     129.626 137.520 121.651  1.00  0.00     0.087 A 
ATOM     15  C   UNL     1     127.128 135.231 118.558  1.00  0.00     0.009 A 
ATOM     16  C   UNL     1     129.078 136.663 118.157  1.00  0.00     0.027 A 
ATOM     17  C   UNL     1     128.052 135.826 117.689  1.00  0.00     0.003 A 
ATOM     18  H   UNL     1     130.759 138.171 119.973  1.00  0.00     0.166 HD
ENDROOT
BRANCH   7  19
ATOM     19  C   UNL     1     123.429 132.698 121.263  1.00  0.00     0.225 C 
ATOM     20  O   UNL     1     123.267 132.523 120.061  1.00  0.00    -0.275 OA
ATOM     21  N   UNL     1     122.433 132.370 122.144  1.00  0.00    -0.369 N 
ATOM     22  H   UNL     1     121.560 132.036 121.757  1.00  0.00     0.159 HD
ATOM     23  H   UNL     1     122.471 132.614 123.124  1.00  0.00     0.159 HD
ENDBRANCH   7  19
TORSDOF 1
ENDMDL
MODEL 20
REMARK VINA RESULT:    -7.881      1.846      2.833
REMARK INTER + INTRA:          -8.448
REMARK INTER:                  -8.342
REMARK INTRA:                  -0.107
REMARK UNBOUND:                -0.107
REMARK SMILES CN1C[C@H](C(N)=O)C=C2c3cccc4[nH]cc(c34)C[C@H]21
REMARK SMILES IDX 2 1 15 2 20 3 9 4 19 5 3 6 4 7 17 8 10 9 18 10 8 11 14 12
REMARK SMILES IDX 1 13 16 14 11 15 13 16 12 17 5 19 7 20 6 21
REMARK H PARENT 15 18 6 22 6 23
ROOT
ATOM      1  N   UNL     1     125.221 133.076 119.644  1.00  0.00    -0.298 NA
ATOM      2  N   UNL     1     123.418 134.976 125.058  1.00  0.00    -0.361 N 
ATOM      3  C   UNL     1     124.942 133.979 120.805  1.00  0.00     0.091 C 
ATOM      4  C   UNL     1     126.240 134.567 121.448  1.00  0.00    -0.026 C 
ATOM      5  C   UNL     1     124.025 133.237 121.852  1.00  0.00     0.061 C 
ATOM      6  C   UNL     1     126.297 133.638 118.800  1.00  0.00     0.102 C 
ATOM      7  C   UNL     1     127.627 133.700 119.570  1.00  0.00     0.115 C 
ATOM      8  C   UNL     1     123.914 134.022 123.114  1.00  0.00    -0.020 A 
ATOM      9  C   UNL     1     126.077 135.299 122.726  1.00  0.00    -0.011 A 
ATOM     10  C   UNL     1     124.922 134.956 123.439  1.00  0.00     0.010 A 
ATOM     11  C   UNL     1     127.456 134.404 120.893  1.00  0.00    -0.007 C 
ATOM     12  C   UNL     1     124.605 135.547 124.650  1.00  0.00     0.046 A 
ATOM     13  C   UNL     1     124.024 132.868 118.824  1.00  0.00     0.106 C 
ATOM     14  C   UNL     1     122.989 134.048 124.132  1.00  0.00     0.087 A 
ATOM     15  C   UNL     1     126.909 136.276 123.286  1.00  0.00     0.009 A 
ATOM     16  C   UNL     1     125.427 136.518 125.225  1.00  0.00     0.027 A 
ATOM     17  C   UNL     1     126.586 136.870 124.514  1.00  0.00     0.003 A 
ATOM     18  H   UNL     1     122.936 135.207 125.915  1.00  0.00     0.166 HD
ENDROOT
BRANCH   7  19
ATOM     19  C   UNL     1     128.684 134.416 118.725  1.00  0.00     0.225 C 
ATOM     20  O   UNL     1     129.075 135.563 118.912  1.00  0.00    -0.275 OA
ATOM     21  N   UNL     1     129.205 133.673 117.699  1.00  0.00    -0.369 N 
ATOM     22  H   UNL     1     129.872 134.127 117.088  1.00  0.00     0.159 HD
ATOM     23  H   UNL     1     128.825 132.778 117.428  1.00  0.00     0.159 HD
ENDBRANCH   7  19
TORSDOF 1
ENDMDL
