MODEL 1
REMARK VINA RESULT:    -8.933      0.000      0.000
REMARK INTER + INTRA:          -9.553
REMARK INTER:                  -9.456
REMARK INTRA:                  -0.097
REMARK UNBOUND:                -0.097
REMARK SMILES CN1C[C@H](C(N)=O)C=C2c3cccc4[nH]cc(c34)C[C@H]21
REMARK SMILES IDX 2 1 15 2 20 3 9 4 19 5 3 6 4 7 17 8 10 9 18 10 8 11 14 12
REMARK SMILES IDX 1 13 16 14 11 15 13 16 12 17 5 19 7 20 6 21
REMARK H PARENT 15 18 6 22 6 23
ROOT
ATOM      1  N   UNL     1      20.726  17.558  11.898  1.00  0.00    -0.298 NA
ATOM      2  N   UNL     1      23.841  14.384   7.849  1.00  0.00    -0.361 N 
ATOM      3  C   UNL     1      21.650  17.228  10.768  1.00  0.00     0.091 C 
ATOM      4  C   UNL     1      21.161  17.790   9.393  1.00  0.00    -0.026 C 
ATOM      5  C   UNL     1      21.917  15.674  10.731  1.00  0.00     0.061 C 
ATOM      6  C   UNL     1      20.241  18.949  11.778  1.00  0.00     0.102 C 
ATOM      7  C   UNL     1      19.384  19.128  10.513  1.00  0.00     0.115 C 
ATOM      8  C   UNL     1      22.649  15.288   9.491  1.00  0.00    -0.020 A 
ATOM      9  C   UNL     1      21.896  17.337   8.190  1.00  0.00    -0.011 A 
ATOM     10  C   UNL     1      22.575  16.123   8.356  1.00  0.00     0.010 A 
ATOM     11  C   UNL     1      20.110  18.626   9.290  1.00  0.00    -0.007 C 
ATOM     12  C   UNL     1      23.321  15.555   7.338  1.00  0.00     0.046 A 
ATOM     13  C   UNL     1      21.381  17.386  13.198  1.00  0.00     0.106 C 
ATOM     14  C   UNL     1      23.438  14.212   9.156  1.00  0.00     0.087 A 
ATOM     15  C   UNL     1      22.003  17.965   6.943  1.00  0.00     0.009 A 
ATOM     16  C   UNL     1      23.432  16.165   6.087  1.00  0.00     0.027 A 
ATOM     17  C   UNL     1      22.757  17.384   5.914  1.00  0.00     0.003 A 
ATOM     18  H   UNL     1      24.429  13.746   7.333  1.00  0.00     0.166 HD
ENDROOT
BRANCH   7  19
ATOM     19  C   UNL     1      19.017  20.604  10.338  1.00  0.00     0.225 C 
ATOM     20  O   UNL     1      19.424  21.518  11.047  1.00  0.00    -0.275 OA
ATOM     21  N   UNL     1      18.173  20.870   9.293  1.00  0.00    -0.369 N 
ATOM     22  H   UNL     1      17.868  21.827   9.173  1.00  0.00     0.159 HD
ATOM     23  H   UNL     1      17.713  20.141   8.766  1.00  0.00     0.159 HD
ENDBRANCH   7  19
TORSDOF 1
ENDMDL
MODEL 2
REMARK VINA RESULT:    -8.702      1.687      3.578
REMARK INTER + INTRA:          -9.308
REMARK INTER:                  -9.211
REMARK INTRA:                  -0.097
REMARK UNBOUND:                -0.097
REMARK SMILES CN1C[C@H](C(N)=O)C=C2c3cccc4[nH]cc(c34)C[C@H]21
REMARK SMILES IDX 2 1 15 2 20 3 9 4 19 5 3 6 4 7 17 8 10 9 18 10 8 11 14 12
REMARK SMILES IDX 1 13 16 14 11 15 13 16 12 17 5 19 7 20 6 21
REMARK H PARENT 15 18 6 22 6 23
ROOT
ATOM      1  N   UNL     1      20.423  19.468  10.177  1.00  0.00    -0.298 NA
ATOM      2  N   UNL     1      22.958  16.266   5.762  1.00  0.00    -0.361 N 
ATOM      3  C   UNL     1      20.828  18.304   9.328  1.00  0.00     0.091 C 
ATOM      4  C   UNL     1      21.749  17.289  10.081  1.00  0.00    -0.026 C 
ATOM      5  C   UNL     1      21.464  18.819   7.979  1.00  0.00     0.061 C 
ATOM      6  C   UNL     1      20.094  19.019  11.545  1.00  0.00     0.102 C 
ATOM      7  C   UNL     1      21.333  18.440  12.249  1.00  0.00     0.115 C 
ATOM      8  C   UNL     1      22.078  17.696   7.216  1.00  0.00    -0.020 A 
ATOM      9  C   UNL     1      22.369  16.220   9.264  1.00  0.00    -0.011 A 
ATOM     10  C   UNL     1      22.472  16.527   7.902  1.00  0.00     0.010 A 
ATOM     11  C   UNL     1      21.995  17.383  11.402  1.00  0.00    -0.007 C 
ATOM     12  C   UNL     1      23.018  15.640   6.989  1.00  0.00     0.046 A 
ATOM     13  C   UNL     1      19.270  20.173   9.609  1.00  0.00     0.106 C 
ATOM     14  C   UNL     1      22.389  17.515   5.888  1.00  0.00     0.087 A 
ATOM     15  C   UNL     1      22.840  14.967   9.676  1.00  0.00     0.009 A 
ATOM     16  C   UNL     1      23.498  14.390   7.385  1.00  0.00     0.027 A 
ATOM     17  C   UNL     1      23.394  14.073   8.749  1.00  0.00     0.003 A 
ATOM     18  H   UNL     1      23.289  15.862   4.897  1.00  0.00     0.166 HD
ENDROOT
BRANCH   7  19
ATOM     19  C   UNL     1      20.933  17.853  13.606  1.00  0.00     0.225 C 
ATOM     20  O   UNL     1      19.782  17.752  14.017  1.00  0.00    -0.275 OA
ATOM     21  N   UNL     1      21.978  17.416  14.377  1.00  0.00    -0.369 N 
ATOM     22  H   UNL     1      21.759  17.066  15.301  1.00  0.00     0.159 HD
ATOM     23  H   UNL     1      22.943  17.595  14.138  1.00  0.00     0.159 HD
ENDBRANCH   7  19
TORSDOF 1
ENDMDL
MODEL 3
REMARK VINA RESULT:    -8.353      1.522      2.083
REMARK INTER + INTRA:          -8.939
REMARK INTER:                  -8.842
REMARK INTRA:                  -0.097
REMARK UNBOUND:                -0.097
REMARK SMILES CN1C[C@H](C(N)=O)C=C2c3cccc4[nH]cc(c34)C[C@H]21
REMARK SMILES IDX 2 1 15 2 20 3 9 4 19 5 3 6 4 7 17 8 10 9 18 10 8 11 14 12
REMARK SMILES IDX 1 13 16 14 11 15 13 16 12 17 5 19 7 20 6 21
REMARK H PARENT 15 18 6 22 6 23
ROOT
ATOM      1  N   UNL     1      19.658  19.173  12.205  1.00  0.00    -0.298 NA
ATOM      2  N   UNL     1      22.591  16.076   7.965  1.00  0.00    -0.361 N 
ATOM      3  C   UNL     1      20.585  18.854  11.074  1.00  0.00     0.091 C 
ATOM      4  C   UNL     1      20.200  19.580   9.744  1.00  0.00    -0.026 C 
ATOM      5  C   UNL     1      20.702  17.290  10.903  1.00  0.00     0.061 C 
ATOM      6  C   UNL     1      19.314  20.611  12.200  1.00  0.00     0.102 C 
ATOM      7  C   UNL     1      18.523  20.984  10.935  1.00  0.00     0.115 C 
ATOM      8  C   UNL     1      21.436  16.945   9.652  1.00  0.00    -0.020 A 
ATOM      9  C   UNL     1      20.930  19.165   8.524  1.00  0.00    -0.011 A 
ATOM     10  C   UNL     1      21.482  17.880   8.596  1.00  0.00     0.010 A 
ATOM     11  C   UNL     1      19.239  20.523   9.690  1.00  0.00    -0.007 C 
ATOM     12  C   UNL     1      22.205  17.333   7.550  1.00  0.00     0.046 A 
ATOM     13  C   UNL     1      20.248  18.823  13.500  1.00  0.00     0.106 C 
ATOM     14  C   UNL     1      22.129  15.829   9.241  1.00  0.00     0.087 A 
ATOM     15  C   UNL     1      21.140  19.887   7.342  1.00  0.00     0.009 A 
ATOM     16  C   UNL     1      22.418  18.037   6.363  1.00  0.00     0.027 A 
ATOM     17  C   UNL     1      21.870  19.327   6.285  1.00  0.00     0.003 A 
ATOM     18  H   UNL     1      23.133  15.430   7.409  1.00  0.00     0.166 HD
ENDROOT
BRANCH   7  19
ATOM     19  C   UNL     1      18.306  22.499  10.885  1.00  0.00     0.225 C 
ATOM     20  O   UNL     1      19.146  23.340  11.188  1.00  0.00    -0.275 OA
ATOM     21  N   UNL     1      17.066  22.892  10.458  1.00  0.00    -0.369 N 
ATOM     22  H   UNL     1      16.866  23.884  10.457  1.00  0.00     0.159 HD
ATOM     23  H   UNL     1      16.305  22.241  10.322  1.00  0.00     0.159 HD
ENDBRANCH   7  19
TORSDOF 1
ENDMDL
MODEL 4
REMARK VINA RESULT:    -8.185      6.222      9.865
REMARK INTER + INTRA:          -8.761
REMARK INTER:                  -8.654
REMARK INTRA:                  -0.107
REMARK UNBOUND:                -0.097
REMARK SMILES CN1C[C@H](C(N)=O)C=C2c3cccc4[nH]cc(c34)C[C@H]21
REMARK SMILES IDX 2 1 15 2 20 3 9 4 19 5 3 6 4 7 17 8 10 9 18 10 8 11 14 12
REMARK SMILES IDX 1 13 16 14 11 15 13 16 12 17 5 19 7 20 6 21
REMARK H PARENT 15 18 6 22 6 23
ROOT
ATOM      1  N   UNL     1      19.234  22.277  13.479  1.00  0.00    -0.298 NA
ATOM      2  N   UNL     1      15.028  23.144  17.691  1.00  0.00    -0.361 N 
ATOM      3  C   UNL     1      17.981  22.111  14.281  1.00  0.00     0.091 C 
ATOM      4  C   UNL     1      16.685  22.415  13.462  1.00  0.00    -0.026 C 
ATOM      5  C   UNL     1      18.077  22.961  15.607  1.00  0.00     0.061 C 
ATOM      6  C   UNL     1      19.052  21.727  12.120  1.00  0.00     0.102 C 
ATOM      7  C   UNL     1      17.987  22.519  11.342  1.00  0.00     0.115 C 
ATOM      8  C   UNL     1      16.766  22.996  16.315  1.00  0.00    -0.020 A 
ATOM      9  C   UNL     1      15.416  22.483  14.223  1.00  0.00    -0.011 A 
ATOM     10  C   UNL     1      15.580  22.766  15.585  1.00  0.00     0.010 A 
ATOM     11  C   UNL     1      16.708  22.630  12.132  1.00  0.00    -0.007 C 
ATOM     12  C   UNL     1      14.502  22.858  16.449  1.00  0.00     0.046 A 
ATOM     13  C   UNL     1      20.374  21.614  14.119  1.00  0.00     0.106 C 
ATOM     14  C   UNL     1      16.403  23.230  17.621  1.00  0.00     0.087 A 
ATOM     15  C   UNL     1      14.108  22.290  13.762  1.00  0.00     0.009 A 
ATOM     16  C   UNL     1      13.191  22.675  16.004  1.00  0.00     0.027 A 
ATOM     17  C   UNL     1      13.020  22.386  14.640  1.00  0.00     0.003 A 
ATOM     18  H   UNL     1      14.480  23.273  18.530  1.00  0.00     0.166 HD
ENDROOT
BRANCH   7  19
ATOM     19  C   UNL     1      17.716  21.843   9.995  1.00  0.00     0.225 C 
ATOM     20  O   UNL     1      17.229  22.396   9.016  1.00  0.00    -0.275 OA
ATOM     21  N   UNL     1      18.069  20.521   9.931  1.00  0.00    -0.369 N 
ATOM     22  H   UNL     1      17.862  20.024   9.073  1.00  0.00     0.159 HD
ATOM     23  H   UNL     1      18.351  19.992  10.744  1.00  0.00     0.159 HD
ENDBRANCH   7  19
TORSDOF 1
ENDMDL
MODEL 5
REMARK VINA RESULT:    -8.128      2.942      6.581
REMARK INTER + INTRA:          -8.701
REMARK INTER:                  -8.578
REMARK INTRA:                  -0.123
REMARK UNBOUND:                -0.097
REMARK SMILES CN1C[C@H](C(N)=O)C=C2c3cccc4[nH]cc(c34)C[C@H]21
REMARK SMILES IDX 2 1 15 2 20 3 9 4 19 5 3 6 4 7 17 8 10 9 18 10 8 11 14 12
REMARK SMILES IDX 1 13 16 14 11 15 13 16 12 17 5 19 7 20 6 21
REMARK H PARENT 15 18 6 22 6 23
ROOT
ATOM      1  N   UNL     1      22.196  18.940  12.019  1.00  0.00    -0.298 NA
ATOM      2  N   UNL     1      19.160  24.091  12.669  1.00  0.00    -0.361 N 
ATOM      3  C   UNL     1      21.060  19.909  12.106  1.00  0.00     0.091 C 
ATOM      4  C   UNL     1      20.276  20.056  10.761  1.00  0.00    -0.026 C 
ATOM      5  C   UNL     1      21.576  21.291  12.664  1.00  0.00     0.061 C 
ATOM      6  C   UNL     1      21.799  17.748  11.241  1.00  0.00     0.102 C 
ATOM      7  C   UNL     1      21.494  18.119   9.779  1.00  0.00     0.115 C 
ATOM      8  C   UNL     1      20.521  22.339  12.553  1.00  0.00    -0.020 A 
ATOM      9  C   UNL     1      19.271  21.142  10.691  1.00  0.00    -0.011 A 
ATOM     10  C   UNL     1      19.491  22.185  11.601  1.00  0.00     0.010 A 
ATOM     11  C   UNL     1      20.507  19.256   9.702  1.00  0.00    -0.007 C 
ATOM     12  C   UNL     1      18.646  23.279  11.680  1.00  0.00     0.046 A 
ATOM     13  C   UNL     1      22.649  18.519  13.348  1.00  0.00     0.106 C 
ATOM     14  C   UNL     1      20.300  23.529  13.206  1.00  0.00     0.087 A 
ATOM     15  C   UNL     1      18.151  21.246   9.857  1.00  0.00     0.009 A 
ATOM     16  C   UNL     1      17.529  23.399  10.851  1.00  0.00     0.027 A 
ATOM     17  C   UNL     1      17.300  22.356   9.939  1.00  0.00     0.003 A 
ATOM     18  H   UNL     1      18.757  24.972  12.953  1.00  0.00     0.166 HD
ENDROOT
BRANCH   7  19
ATOM     19  C   UNL     1      20.948  16.897   9.036  1.00  0.00     0.225 C 
ATOM     20  O   UNL     1      21.587  16.213   8.243  1.00  0.00    -0.275 OA
ATOM     21  N   UNL     1      19.645  16.583   9.317  1.00  0.00    -0.369 N 
ATOM     22  H   UNL     1      19.232  15.811   8.809  1.00  0.00     0.159 HD
ATOM     23  H   UNL     1      19.044  17.188   9.859  1.00  0.00     0.159 HD
ENDBRANCH   7  19
TORSDOF 1
ENDMDL
MODEL 6
REMARK VINA RESULT:    -8.030      5.381      8.374
REMARK INTER + INTRA:          -8.597
REMARK INTER:                  -8.477
REMARK INTRA:                  -0.119
REMARK UNBOUND:                -0.097
REMARK SMILES CN1C[C@H](C(N)=O)C=C2c3cccc4[nH]cc(c34)C[C@H]21
REMARK SMILES IDX 2 1 15 2 20 3 9 4 19 5 3 6 4 7 17 8 10 9 18 10 8 11 14 12
REMARK SMILES IDX 1 13 16 14 11 15 13 16 12 17 5 19 7 20 6 21
REMARK H PARENT 15 18 6 22 6 23
ROOT
ATOM      1  N   UNL     1      24.115  19.779  18.055  1.00  0.00    -0.298 NA
ATOM      2  N   UNL     1      21.663  22.465  13.264  1.00  0.00    -0.361 N 
ATOM      3  C   UNL     1      23.289  20.000  16.826  1.00  0.00     0.091 C 
ATOM      4  C   UNL     1      23.725  19.098  15.626  1.00  0.00    -0.026 C 
ATOM      5  C   UNL     1      23.271  21.534  16.461  1.00  0.00     0.061 C 
ATOM      6  C   UNL     1      24.378  18.338  18.247  1.00  0.00     0.102 C 
ATOM      7  C   UNL     1      25.233  17.775  17.100  1.00  0.00     0.115 C 
ATOM      8  C   UNL     1      22.647  21.757  15.126  1.00  0.00    -0.020 A 
ATOM      9  C   UNL     1      23.107  19.393  14.312  1.00  0.00    -0.011 A 
ATOM     10  C   UNL     1      22.622  20.702  14.189  1.00  0.00     0.010 A 
ATOM     11  C   UNL     1      24.633  18.112  15.758  1.00  0.00    -0.007 C 
ATOM     12  C   UNL     1      22.006  21.150  13.032  1.00  0.00     0.046 A 
ATOM     13  C   UNL     1      23.456  20.314  19.250  1.00  0.00     0.106 C 
ATOM     14  C   UNL     1      22.048  22.844  14.533  1.00  0.00     0.087 A 
ATOM     15  C   UNL     1      22.940  18.543  13.213  1.00  0.00     0.009 A 
ATOM     16  C   UNL     1      21.838  20.315  11.925  1.00  0.00     0.027 A 
ATOM     17  C   UNL     1      22.318  19.001  12.043  1.00  0.00     0.003 A 
ATOM     18  H   UNL     1      21.198  23.061  12.595  1.00  0.00     0.166 HD
ENDROOT
BRANCH   7  19
ATOM     19  C   UNL     1      25.369  16.257  17.249  1.00  0.00     0.225 C 
ATOM     20  O   UNL     1      26.419  15.663  17.464  1.00  0.00    -0.275 OA
ATOM     21  N   UNL     1      24.197  15.558  17.130  1.00  0.00    -0.369 N 
ATOM     22  H   UNL     1      24.251  14.548  17.174  1.00  0.00     0.159 HD
ATOM     23  H   UNL     1      23.335  15.988  16.826  1.00  0.00     0.159 HD
ENDBRANCH   7  19
TORSDOF 1
ENDMDL
MODEL 7
REMARK VINA RESULT:    -7.798      3.599      5.098
REMARK INTER + INTRA:          -8.351
REMARK INTER:                  -8.245
REMARK INTRA:                  -0.106
REMARK UNBOUND:                -0.097
REMARK SMILES CN1C[C@H](C(N)=O)C=C2c3cccc4[nH]cc(c34)C[C@H]21
REMARK SMILES IDX 2 1 15 2 20 3 9 4 19 5 3 6 4 7 17 8 10 9 18 10 8 11 14 12
REMARK SMILES IDX 1 13 16 14 11 15 13 16 12 17 5 19 7 20 6 21
REMARK H PARENT 15 18 6 22 6 23
ROOT
ATOM      1  N   UNL     1      20.003  22.909  12.611  1.00  0.00    -0.298 NA
ATOM      2  N   UNL     1      21.405  17.087  13.164  1.00  0.00    -0.361 N 
ATOM      3  C   UNL     1      20.370  21.503  12.252  1.00  0.00     0.091 C 
ATOM      4  C   UNL     1      19.256  20.769  11.437  1.00  0.00    -0.026 C 
ATOM      5  C   UNL     1      20.796  20.713  13.549  1.00  0.00     0.061 C 
ATOM      6  C   UNL     1      19.336  23.574  11.472  1.00  0.00     0.102 C 
ATOM      7  C   UNL     1      17.995  22.896  11.145  1.00  0.00     0.115 C 
ATOM      8  C   UNL     1      20.951  19.259  13.262  1.00  0.00    -0.020 A 
ATOM      9  C   UNL     1      19.439  19.315  11.219  1.00  0.00    -0.011 A 
ATOM     10  C   UNL     1      20.276  18.697  12.157  1.00  0.00     0.010 A 
ATOM     11  C   UNL     1      18.167  21.408  10.968  1.00  0.00    -0.007 C 
ATOM     12  C   UNL     1      20.565  17.344  12.102  1.00  0.00     0.046 A 
ATOM     13  C   UNL     1      21.180  23.689  13.004  1.00  0.00     0.106 C 
ATOM     14  C   UNL     1      21.646  18.243  13.876  1.00  0.00     0.087 A 
ATOM     15  C   UNL     1      18.902  18.507  10.209  1.00  0.00     0.009 A 
ATOM     16  C   UNL     1      20.032  16.524  11.105  1.00  0.00     0.027 A 
ATOM     17  C   UNL     1      19.196  17.138  10.159  1.00  0.00     0.003 A 
ATOM     18  H   UNL     1      21.785  16.178  13.387  1.00  0.00     0.166 HD
ENDROOT
BRANCH   7  19
ATOM     19  C   UNL     1      17.397  23.511   9.876  1.00  0.00     0.225 C 
ATOM     20  O   UNL     1      17.173  22.900   8.837  1.00  0.00    -0.275 OA
ATOM     21  N   UNL     1      17.102  24.845   9.964  1.00  0.00    -0.369 N 
ATOM     22  H   UNL     1      16.750  25.300   9.131  1.00  0.00     0.159 HD
ATOM     23  H   UNL     1      17.386  25.415  10.749  1.00  0.00     0.159 HD
ENDBRANCH   7  19
TORSDOF 1
ENDMDL
MODEL 8
REMARK VINA RESULT:    -7.787      5.253      8.293
REMARK INTER + INTRA:          -8.339
REMARK INTER:                  -8.234
REMARK INTRA:                  -0.105
REMARK UNBOUND:                -0.097
REMARK SMILES CN1C[C@H](C(N)=O)C=C2c3cccc4[nH]cc(c34)C[C@H]21
REMARK SMILES IDX 2 1 15 2 20 3 9 4 19 5 3 6 4 7 17 8 10 9 18 10 8 11 14 12
REMARK SMILES IDX 1 13 16 14 11 15 13 16 12 17 5 19 7 20 6 21
REMARK H PARENT 15 18 6 22 6 23
ROOT
ATOM      1  N   UNL     1      22.495  20.812  13.086  1.00  0.00    -0.298 NA
ATOM      2  N   UNL     1      24.674  17.452  17.574  1.00  0.00    -0.361 N 
ATOM      3  C   UNL     1      22.621  20.143  14.419  1.00  0.00     0.091 C 
ATOM      4  C   UNL     1      22.790  21.155  15.598  1.00  0.00    -0.026 C 
ATOM      5  C   UNL     1      23.771  19.064  14.371  1.00  0.00     0.061 C 
ATOM      6  C   UNL     1      21.631  22.006  13.188  1.00  0.00     0.102 C 
ATOM      7  C   UNL     1      22.267  23.072  14.097  1.00  0.00     0.115 C 
ATOM      8  C   UNL     1      24.069  18.542  15.735  1.00  0.00    -0.020 A 
ATOM      9  C   UNL     1      23.131  20.584  16.922  1.00  0.00    -0.011 A 
ATOM     10  C   UNL     1      23.739  19.324  16.863  1.00  0.00     0.010 A 
ATOM     11  C   UNL     1      22.658  22.485  15.430  1.00  0.00    -0.007 C 
ATOM     12  C   UNL     1      24.118  18.638  18.004  1.00  0.00     0.046 A 
ATOM     13  C   UNL     1      21.945  19.902  12.077  1.00  0.00     0.106 C 
ATOM     14  C   UNL     1      24.650  17.383  16.196  1.00  0.00     0.087 A 
ATOM     15  C   UNL     1      22.913  21.130  18.193  1.00  0.00     0.009 A 
ATOM     16  C   UNL     1      23.912  19.172  19.278  1.00  0.00     0.027 A 
ATOM     17  C   UNL     1      23.299  20.433  19.346  1.00  0.00     0.003 A 
ATOM     18  H   UNL     1      25.048  16.739  18.184  1.00  0.00     0.166 HD
ENDROOT
BRANCH   7  19
ATOM     19  C   UNL     1      21.290  24.233  14.300  1.00  0.00     0.225 C 
ATOM     20  O   UNL     1      20.299  24.446  13.610  1.00  0.00    -0.275 OA
ATOM     21  N   UNL     1      21.587  25.062  15.349  1.00  0.00    -0.369 N 
ATOM     22  H   UNL     1      20.993  25.870  15.487  1.00  0.00     0.159 HD
ATOM     23  H   UNL     1      22.456  25.002  15.861  1.00  0.00     0.159 HD
ENDBRANCH   7  19
TORSDOF 1
ENDMDL
MODEL 9
REMARK VINA RESULT:    -7.783      2.029      3.881
REMARK INTER + INTRA:          -8.335
REMARK INTER:                  -8.229
REMARK INTRA:                  -0.106
REMARK UNBOUND:                -0.097
REMARK SMILES CN1C[C@H](C(N)=O)C=C2c3cccc4[nH]cc(c34)C[C@H]21
REMARK SMILES IDX 2 1 15 2 20 3 9 4 19 5 3 6 4 7 17 8 10 9 18 10 8 11 14 12
REMARK SMILES IDX 1 13 16 14 11 15 13 16 12 17 5 19 7 20 6 21
REMARK H PARENT 15 18 6 22 6 23
ROOT
ATOM      1  N   UNL     1      21.507  18.494   8.687  1.00  0.00    -0.298 NA
ATOM      2  N   UNL     1      24.124  14.446   5.089  1.00  0.00    -0.361 N 
ATOM      3  C   UNL     1      21.875  17.182   8.067  1.00  0.00     0.091 C 
ATOM      4  C   UNL     1      22.619  16.226   9.056  1.00  0.00    -0.026 C 
ATOM      5  C   UNL     1      22.682  17.428   6.734  1.00  0.00     0.061 C 
ATOM      6  C   UNL     1      21.008  18.291  10.063  1.00  0.00     0.102 C 
ATOM      7  C   UNL     1      22.113  17.731  10.974  1.00  0.00     0.115 C 
ATOM      8  C   UNL     1      23.253  16.153   6.214  1.00  0.00    -0.020 A 
ATOM      9  C   UNL     1      23.206  14.995   8.476  1.00  0.00    -0.011 A 
ATOM     10  C   UNL     1      23.466  15.077   7.102  1.00  0.00     0.010 A 
ATOM     11  C   UNL     1      22.746  16.504  10.367  1.00  0.00    -0.007 C 
ATOM     12  C   UNL     1      24.007  14.017   6.394  1.00  0.00     0.046 A 
ATOM     13  C   UNL     1      20.485  19.192   7.901  1.00  0.00     0.106 C 
ATOM     14  C   UNL     1      23.669  15.743   4.968  1.00  0.00     0.087 A 
ATOM     15  C   UNL     1      23.513  13.788   9.116  1.00  0.00     0.009 A 
ATOM     16  C   UNL     1      24.324  12.809   7.019  1.00  0.00     0.027 A 
ATOM     17  C   UNL     1      24.062  12.718   8.395  1.00  0.00     0.003 A 
ATOM     18  H   UNL     1      24.494  13.888   4.334  1.00  0.00     0.166 HD
ENDROOT
BRANCH   7  19
ATOM     19  C   UNL     1      21.533  17.397  12.351  1.00  0.00     0.225 C 
ATOM     20  O   UNL     1      22.192  17.238  13.372  1.00  0.00    -0.275 OA
ATOM     21  N   UNL     1      20.168  17.284  12.391  1.00  0.00    -0.369 N 
ATOM     22  H   UNL     1      19.749  17.016  13.273  1.00  0.00     0.159 HD
ATOM     23  H   UNL     1      19.598  17.278  11.558  1.00  0.00     0.159 HD
ENDBRANCH   7  19
TORSDOF 1
ENDMDL
MODEL 10
REMARK VINA RESULT:    -7.759      2.492      6.227
REMARK INTER + INTRA:          -8.310
REMARK INTER:                  -8.204
REMARK INTRA:                  -0.106
REMARK UNBOUND:                -0.097
REMARK SMILES CN1C[C@H](C(N)=O)C=C2c3cccc4[nH]cc(c34)C[C@H]21
REMARK SMILES IDX 2 1 15 2 20 3 9 4 19 5 3 6 4 7 17 8 10 9 18 10 8 11 14 12
REMARK SMILES IDX 1 13 16 14 11 15 13 16 12 17 5 19 7 20 6 21
REMARK H PARENT 15 18 6 22 6 23
ROOT
ATOM      1  N   UNL     1      21.341  18.893   7.051  1.00  0.00    -0.298 NA
ATOM      2  N   UNL     1      19.490  20.441  12.560  1.00  0.00    -0.361 N 
ATOM      3  C   UNL     1      21.343  19.126   8.529  1.00  0.00     0.091 C 
ATOM      4  C   UNL     1      21.481  17.807   9.357  1.00  0.00    -0.026 C 
ATOM      5  C   UNL     1      20.077  19.973   8.939  1.00  0.00     0.061 C 
ATOM      6  C   UNL     1      22.349  17.874   6.688  1.00  0.00     0.102 C 
ATOM      7  C   UNL     1      21.995  16.506   7.296  1.00  0.00     0.115 C 
ATOM      8  C   UNL     1      19.932  20.031  10.421  1.00  0.00    -0.020 A 
ATOM      9  C   UNL     1      21.283  17.915  10.820  1.00  0.00    -0.011 A 
ATOM     10  C   UNL     1      20.524  19.025  11.214  1.00  0.00     0.010 A 
ATOM     11  C   UNL     1      21.746  16.619   8.779  1.00  0.00    -0.007 C 
ATOM     12  C   UNL     1      20.246  19.288  12.545  1.00  0.00     0.046 A 
ATOM     13  C   UNL     1      21.615  20.128   6.310  1.00  0.00     0.106 C 
ATOM     14  C   UNL     1      19.293  20.901  11.274  1.00  0.00     0.087 A 
ATOM     15  C   UNL     1      21.759  17.073  11.833  1.00  0.00     0.009 A 
ATOM     16  C   UNL     1      20.709  18.455  13.566  1.00  0.00     0.027 A 
ATOM     17  C   UNL     1      21.473  17.342  13.178  1.00  0.00     0.003 A 
ATOM     18  H   UNL     1      19.132  20.881  13.395  1.00  0.00     0.166 HD
ENDROOT
BRANCH   7  19
ATOM     19  C   UNL     1      23.125  15.509   7.027  1.00  0.00     0.225 C 
ATOM     20  O   UNL     1      24.071  15.300   7.777  1.00  0.00    -0.275 OA
ATOM     21  N   UNL     1      23.019  14.821   5.847  1.00  0.00    -0.369 N 
ATOM     22  H   UNL     1      23.772  14.187   5.609  1.00  0.00     0.159 HD
ATOM     23  H   UNL     1      22.333  15.050   5.143  1.00  0.00     0.159 HD
ENDBRANCH   7  19
TORSDOF 1
ENDMDL
MODEL 11
REMARK VINA RESULT:    -7.737      2.352      5.535
REMARK INTER + INTRA:          -8.287
REMARK INTER:                  -8.180
REMARK INTRA:                  -0.107
REMARK UNBOUND:                -0.097
REMARK SMILES CN1C[C@H](C(N)=O)C=C2c3cccc4[nH]cc(c34)C[C@H]21
REMARK SMILES IDX 2 1 15 2 20 3 9 4 19 5 3 6 4 7 17 8 10 9 18 10 8 11 14 12
REMARK SMILES IDX 1 13 16 14 11 15 13 16 12 17 5 19 7 20 6 21
REMARK H PARENT 15 18 6 22 6 23
ROOT
ATOM      1  N   UNL     1      22.103  17.203   8.854  1.00  0.00    -0.298 NA
ATOM      2  N   UNL     1      19.036  18.640  13.824  1.00  0.00    -0.361 N 
ATOM      3  C   UNL     1      20.983  17.628   9.750  1.00  0.00     0.091 C 
ATOM      4  C   UNL     1      20.518  19.099   9.493  1.00  0.00    -0.026 C 
ATOM      5  C   UNL     1      21.372  17.366  11.256  1.00  0.00     0.061 C 
ATOM      6  C   UNL     1      21.880  17.697   7.479  1.00  0.00     0.102 C 
ATOM      7  C   UNL     1      21.910  19.234   7.433  1.00  0.00     0.115 C 
ATOM      8  C   UNL     1      20.376  17.981  12.179  1.00  0.00    -0.020 A 
ATOM      9  C   UNL     1      19.563  19.675  10.468  1.00  0.00    -0.011 A 
ATOM     10  C   UNL     1      19.582  19.056  11.724  1.00  0.00     0.010 A 
ATOM     11  C   UNL     1      20.973  19.827   8.455  1.00  0.00    -0.007 C 
ATOM     12  C   UNL     1      18.749  19.459  12.753  1.00  0.00     0.046 A 
ATOM     13  C   UNL     1      22.246  15.744   8.826  1.00  0.00     0.106 C 
ATOM     14  C   UNL     1      20.023  17.738  13.487  1.00  0.00     0.087 A 
ATOM     15  C   UNL     1      18.657  20.728  10.287  1.00  0.00     0.009 A 
ATOM     16  C   UNL     1      17.845  20.511  12.590  1.00  0.00     0.027 A 
ATOM     17  C   UNL     1      17.817  21.134  11.332  1.00  0.00     0.003 A 
ATOM     18  H   UNL     1      18.586  18.698  14.726  1.00  0.00     0.166 HD
ENDROOT
BRANCH   7  19
ATOM     19  C   UNL     1      21.535  19.720   6.031  1.00  0.00     0.225 C 
ATOM     20  O   UNL     1      21.629  20.878   5.639  1.00  0.00    -0.275 OA
ATOM     21  N   UNL     1      21.069  18.747   5.187  1.00  0.00    -0.369 N 
ATOM     22  H   UNL     1      20.764  19.035   4.266  1.00  0.00     0.159 HD
ATOM     23  H   UNL     1      20.853  17.811   5.502  1.00  0.00     0.159 HD
ENDBRANCH   7  19
TORSDOF 1
ENDMDL
MODEL 12
REMARK VINA RESULT:    -7.701      2.866      6.930
REMARK INTER + INTRA:          -8.249
REMARK INTER:                  -8.140
REMARK INTRA:                  -0.108
REMARK UNBOUND:                -0.097
REMARK SMILES CN1C[C@H](C(N)=O)C=C2c3cccc4[nH]cc(c34)C[C@H]21
REMARK SMILES IDX 2 1 15 2 20 3 9 4 19 5 3 6 4 7 17 8 10 9 18 10 8 11 14 12
REMARK SMILES IDX 1 13 16 14 11 15 13 16 12 17 5 19 7 20 6 21
REMARK H PARENT 15 18 6 22 6 23
ROOT
ATOM      1  N   UNL     1      20.797  18.768  12.581  1.00  0.00    -0.298 NA
ATOM      2  N   UNL     1      17.288  23.585  13.388  1.00  0.00    -0.361 N 
ATOM      3  C   UNL     1      19.643  19.713  12.458  1.00  0.00     0.091 C 
ATOM      4  C   UNL     1      19.496  20.315  11.022  1.00  0.00    -0.026 C 
ATOM      5  C   UNL     1      19.735  20.820  13.577  1.00  0.00     0.061 C 
ATOM      6  C   UNL     1      20.887  17.904  11.385  1.00  0.00     0.102 C 
ATOM      7  C   UNL     1      21.198  18.733  10.127  1.00  0.00     0.115 C 
ATOM      8  C   UNL     1      18.732  21.898  13.345  1.00  0.00    -0.020 A 
ATOM      9  C   UNL     1      18.516  21.414  10.859  1.00  0.00    -0.011 A 
ATOM     10  C   UNL     1      18.225  22.102  12.044  1.00  0.00     0.010 A 
ATOM     11  C   UNL     1      20.232  19.882   9.981  1.00  0.00    -0.007 C 
ATOM     12  C   UNL     1      17.325  23.154  12.079  1.00  0.00     0.046 A 
ATOM     13  C   UNL     1      20.680  17.927  13.776  1.00  0.00     0.106 C 
ATOM     14  C   UNL     1      18.139  22.829  14.166  1.00  0.00     0.087 A 
ATOM     15  C   UNL     1      17.854  21.830   9.698  1.00  0.00     0.009 A 
ATOM     16  C   UNL     1      16.661  23.584  10.928  1.00  0.00     0.027 A 
ATOM     17  C   UNL     1      16.945  22.896   9.737  1.00  0.00     0.003 A 
ATOM     18  H   UNL     1      16.718  24.349  13.723  1.00  0.00     0.166 HD
ENDROOT
BRANCH   7  19
ATOM     19  C   UNL     1      21.142  17.838   8.887  1.00  0.00     0.225 C 
ATOM     20  O   UNL     1      21.759  18.039   7.846  1.00  0.00    -0.275 OA
ATOM     21  N   UNL     1      20.333  16.739   9.003  1.00  0.00    -0.369 N 
ATOM     22  H   UNL     1      20.231  16.147   8.188  1.00  0.00     0.159 HD
ATOM     23  H   UNL     1      19.711  16.602   9.787  1.00  0.00     0.159 HD
ENDBRANCH   7  19
TORSDOF 1
ENDMDL
MODEL 13
REMARK VINA RESULT:    -7.686      3.584      5.817
REMARK INTER + INTRA:          -8.233
REMARK INTER:                  -8.120
REMARK INTRA:                  -0.113
REMARK UNBOUND:                -0.097
REMARK SMILES CN1C[C@H](C(N)=O)C=C2c3cccc4[nH]cc(c34)C[C@H]21
REMARK SMILES IDX 2 1 15 2 20 3 9 4 19 5 3 6 4 7 17 8 10 9 18 10 8 11 14 12
REMARK SMILES IDX 1 13 16 14 11 15 13 16 12 17 5 19 7 20 6 21
REMARK H PARENT 15 18 6 22 6 23
ROOT
ATOM      1  N   UNL     1      18.872  23.039  12.145  1.00  0.00    -0.298 NA
ATOM      2  N   UNL     1      20.842  17.796   9.955  1.00  0.00    -0.361 N 
ATOM      3  C   UNL     1      19.459  21.664  12.084  1.00  0.00     0.091 C 
ATOM      4  C   UNL     1      20.963  21.621  12.508  1.00  0.00    -0.026 C 
ATOM      5  C   UNL     1      19.209  21.038  10.658  1.00  0.00     0.061 C 
ATOM      6  C   UNL     1      19.337  23.745  13.358  1.00  0.00     0.102 C 
ATOM      7  C   UNL     1      20.857  23.975  13.314  1.00  0.00     0.115 C 
ATOM      8  C   UNL     1      19.971  19.767  10.492  1.00  0.00    -0.020 A 
ATOM      9  C   UNL     1      21.683  20.347  12.279  1.00  0.00    -0.011 A 
ATOM     10  C   UNL     1      21.113  19.537  11.289  1.00  0.00     0.010 A 
ATOM     11  C   UNL     1      21.593  22.688  13.035  1.00  0.00    -0.007 C 
ATOM     12  C   UNL     1      21.649  18.306  10.949  1.00  0.00     0.046 A 
ATOM     13  C   UNL     1      17.407  23.000  12.142  1.00  0.00     0.106 C 
ATOM     14  C   UNL     1      19.819  18.676   9.669  1.00  0.00     0.087 A 
ATOM     15  C   UNL     1      22.827  19.861  12.924  1.00  0.00     0.009 A 
ATOM     16  C   UNL     1      22.793  17.810  11.579  1.00  0.00     0.027 A 
ATOM     17  C   UNL     1      23.368  18.615  12.575  1.00  0.00     0.003 A 
ATOM     18  H   UNL     1      20.986  16.905   9.501  1.00  0.00     0.166 HD
ENDROOT
BRANCH   7  19
ATOM     19  C   UNL     1      21.331  24.575  14.640  1.00  0.00     0.225 C 
ATOM     20  O   UNL     1      20.710  25.401  15.300  1.00  0.00    -0.275 OA
ATOM     21  N   UNL     1      22.544  24.117  15.082  1.00  0.00    -0.369 N 
ATOM     22  H   UNL     1      22.915  24.525  15.930  1.00  0.00     0.159 HD
ATOM     23  H   UNL     1      23.147  23.539  14.514  1.00  0.00     0.159 HD
ENDBRANCH   7  19
TORSDOF 1
ENDMDL
MODEL 14
REMARK VINA RESULT:    -7.677      4.651      7.224
REMARK INTER + INTRA:          -8.223
REMARK INTER:                  -8.126
REMARK INTRA:                  -0.097
REMARK UNBOUND:                -0.097
REMARK SMILES CN1C[C@H](C(N)=O)C=C2c3cccc4[nH]cc(c34)C[C@H]21
REMARK SMILES IDX 2 1 15 2 20 3 9 4 19 5 3 6 4 7 17 8 10 9 18 10 8 11 14 12
REMARK SMILES IDX 1 13 16 14 11 15 13 16 12 17 5 19 7 20 6 21
REMARK H PARENT 15 18 6 22 6 23
ROOT
ATOM      1  N   UNL     1      19.239  20.815  10.508  1.00  0.00    -0.298 NA
ATOM      2  N   UNL     1      22.901  20.729  15.279  1.00  0.00    -0.361 N 
ATOM      3  C   UNL     1      19.724  20.918  11.921  1.00  0.00     0.091 C 
ATOM      4  C   UNL     1      19.624  22.368  12.497  1.00  0.00    -0.026 C 
ATOM      5  C   UNL     1      21.177  20.316  12.034  1.00  0.00     0.061 C 
ATOM      6  C   UNL     1      18.014  21.620  10.323  1.00  0.00     0.102 C 
ATOM      7  C   UNL     1      18.303  23.118  10.524  1.00  0.00     0.115 C 
ATOM      8  C   UNL     1      21.771  20.605  13.371  1.00  0.00    -0.020 A 
ATOM      9  C   UNL     1      20.272  22.610  13.807  1.00  0.00    -0.011 A 
ATOM     10  C   UNL     1      21.287  21.698  14.121  1.00  0.00     0.010 A 
ATOM     11  C   UNL     1      19.004  23.364  11.836  1.00  0.00    -0.007 C 
ATOM     12  C   UNL     1      21.995  21.768  15.309  1.00  0.00     0.046 A 
ATOM     13  C   UNL     1      18.964  19.424  10.134  1.00  0.00     0.106 C 
ATOM     14  C   UNL     1      22.774  20.016  14.106  1.00  0.00     0.087 A 
ATOM     15  C   UNL     1      19.990  23.605  14.752  1.00  0.00     0.009 A 
ATOM     16  C   UNL     1      21.730  22.757  16.258  1.00  0.00     0.027 A 
ATOM     17  C   UNL     1      20.710  23.673  15.953  1.00  0.00     0.003 A 
ATOM     18  H   UNL     1      23.563  20.525  16.014  1.00  0.00     0.166 HD
ENDROOT
BRANCH   7  19
ATOM     19  C   UNL     1      16.995  23.911  10.469  1.00  0.00     0.225 C 
ATOM     20  O   UNL     1      15.937  23.559  10.979  1.00  0.00    -0.275 OA
ATOM     21  N   UNL     1      17.067  25.100   9.793  1.00  0.00    -0.369 N 
ATOM     22  H   UNL     1      16.212  25.632   9.692  1.00  0.00     0.159 HD
ATOM     23  H   UNL     1      17.876  25.369   9.250  1.00  0.00     0.159 HD
ENDBRANCH   7  19
TORSDOF 1
ENDMDL
MODEL 15
REMARK VINA RESULT:    -7.648      2.845      6.323
REMARK INTER + INTRA:          -8.192
REMARK INTER:                  -8.071
REMARK INTRA:                  -0.122
REMARK UNBOUND:                -0.097
REMARK SMILES CN1C[C@H](C(N)=O)C=C2c3cccc4[nH]cc(c34)C[C@H]21
REMARK SMILES IDX 2 1 15 2 20 3 9 4 19 5 3 6 4 7 17 8 10 9 18 10 8 11 14 12
REMARK SMILES IDX 1 13 16 14 11 15 13 16 12 17 5 19 7 20 6 21
REMARK H PARENT 15 18 6 22 6 23
ROOT
ATOM      1  N   UNL     1      20.617  17.397  10.381  1.00  0.00    -0.298 NA
ATOM      2  N   UNL     1      17.010  21.011  13.558  1.00  0.00    -0.361 N 
ATOM      3  C   UNL     1      19.509  18.342  10.722  1.00  0.00     0.091 C 
ATOM      4  C   UNL     1      19.647  19.729  10.014  1.00  0.00    -0.026 C 
ATOM      5  C   UNL     1      19.376  18.469  12.289  1.00  0.00     0.061 C 
ATOM      6  C   UNL     1      20.943  17.482   8.941  1.00  0.00     0.102 C 
ATOM      7  C   UNL     1      21.495  18.872   8.582  1.00  0.00     0.115 C 
ATOM      8  C   UNL     1      18.437  19.566  12.658  1.00  0.00    -0.020 A 
ATOM      9  C   UNL     1      18.718  20.796  10.451  1.00  0.00    -0.011 A 
ATOM     10  C   UNL     1      18.197  20.610  11.738  1.00  0.00     0.010 A 
ATOM     11  C   UNL     1      20.575  19.964   9.066  1.00  0.00    -0.007 C 
ATOM     12  C   UNL     1      17.306  21.505  12.306  1.00  0.00     0.046 A 
ATOM     13  C   UNL     1      20.267  16.013  10.715  1.00  0.00     0.106 C 
ATOM     14  C   UNL     1      17.692  19.833  13.783  1.00  0.00     0.087 A 
ATOM     15  C   UNL     1      18.297  21.932   9.749  1.00  0.00     0.009 A 
ATOM     16  C   UNL     1      16.882  22.645  11.620  1.00  0.00     0.027 A 
ATOM     17  C   UNL     1      17.396  22.837  10.328  1.00  0.00     0.003 A 
ATOM     18  H   UNL     1      16.384  21.454  14.215  1.00  0.00     0.166 HD
ENDROOT
BRANCH   7  19
ATOM     19  C   UNL     1      21.687  18.979   7.067  1.00  0.00     0.225 C 
ATOM     20  O   UNL     1      22.539  18.377   6.422  1.00  0.00    -0.275 OA
ATOM     21  N   UNL     1      20.812  19.819   6.431  1.00  0.00    -0.369 N 
ATOM     22  H   UNL     1      20.937  19.955   5.436  1.00  0.00     0.159 HD
ATOM     23  H   UNL     1      20.183  20.431   6.932  1.00  0.00     0.159 HD
ENDBRANCH   7  19
TORSDOF 1
ENDMDL
MODEL 16
REMARK VINA RESULT:    -7.632      6.012      8.836
REMARK INTER + INTRA:          -8.175
REMARK INTER:                  -8.067
REMARK INTRA:                  -0.108
REMARK UNBOUND:                -0.097
REMARK SMILES CN1C[C@H](C(N)=O)C=C2c3cccc4[nH]cc(c34)C[C@H]21
REMARK SMILES IDX 2 1 15 2 20 3 9 4 19 5 3 6 4 7 17 8 10 9 18 10 8 11 14 12
REMARK SMILES IDX 1 13 16 14 11 15 13 16 12 17 5 19 7 20 6 21
REMARK H PARENT 15 18 6 22 6 23
ROOT
ATOM      1  N   UNL     1      24.857  17.801  17.379  1.00  0.00    -0.298 NA
ATOM      2  N   UNL     1      22.623  20.317  12.394  1.00  0.00    -0.361 N 
ATOM      3  C   UNL     1      24.529  18.823  16.336  1.00  0.00     0.091 C 
ATOM      4  C   UNL     1      23.613  19.971  16.873  1.00  0.00    -0.026 C 
ATOM      5  C   UNL     1      23.933  18.115  15.059  1.00  0.00     0.061 C 
ATOM      6  C   UNL     1      25.144  18.456  18.672  1.00  0.00     0.102 C 
ATOM      7  C   UNL     1      23.897  19.174  19.215  1.00  0.00     0.115 C 
ATOM      8  C   UNL     1      23.392  19.117  14.097  1.00  0.00    -0.020 A 
ATOM      9  C   UNL     1      23.065  20.911  15.867  1.00  0.00    -0.011 A 
ATOM     10  C   UNL     1      23.009  20.391  14.568  1.00  0.00     0.010 A 
ATOM     11  C   UNL     1      23.309  20.099  18.179  1.00  0.00    -0.007 C 
ATOM     12  C   UNL     1      22.533  21.134  13.501  1.00  0.00     0.046 A 
ATOM     13  C   UNL     1      26.009  16.983  16.986  1.00  0.00     0.106 C 
ATOM     14  C   UNL     1      23.144  19.089  12.745  1.00  0.00     0.087 A 
ATOM     15  C   UNL     1      22.621  22.226  16.050  1.00  0.00     0.009 A 
ATOM     16  C   UNL     1      22.081  22.444  13.668  1.00  0.00     0.027 A 
ATOM     17  C   UNL     1      22.138  22.974  14.967  1.00  0.00     0.003 A 
ATOM     18  H   UNL     1      22.344  20.585  11.461  1.00  0.00     0.166 HD
ENDROOT
BRANCH   7  19
ATOM     19  C   UNL     1      24.259  19.962  20.477  1.00  0.00     0.225 C 
ATOM     20  O   UNL     1      23.470  20.271  21.363  1.00  0.00    -0.275 OA
ATOM     21  N   UNL     1      25.578  20.317  20.579  1.00  0.00    -0.369 N 
ATOM     22  H   UNL     1      25.848  20.880  21.375  1.00  0.00     0.159 HD
ATOM     23  H   UNL     1      26.233  20.198  19.819  1.00  0.00     0.159 HD
ENDBRANCH   7  19
TORSDOF 1
ENDMDL
MODEL 17
REMARK VINA RESULT:    -7.616      4.398      7.201
REMARK INTER + INTRA:          -8.159
REMARK INTER:                  -8.056
REMARK INTRA:                  -0.103
REMARK UNBOUND:                -0.097
REMARK SMILES CN1C[C@H](C(N)=O)C=C2c3cccc4[nH]cc(c34)C[C@H]21
REMARK SMILES IDX 2 1 15 2 20 3 9 4 19 5 3 6 4 7 17 8 10 9 18 10 8 11 14 12
REMARK SMILES IDX 1 13 16 14 11 15 13 16 12 17 5 19 7 20 6 21
REMARK H PARENT 15 18 6 22 6 23
ROOT
ATOM      1  N   UNL     1      18.834  23.867  14.539  1.00  0.00    -0.298 NA
ATOM      2  N   UNL     1      17.961  21.111   9.265  1.00  0.00    -0.361 N 
ATOM      3  C   UNL     1      18.778  22.795  13.496  1.00  0.00     0.091 C 
ATOM      4  C   UNL     1      20.185  22.215  13.137  1.00  0.00    -0.026 C 
ATOM      5  C   UNL     1      17.993  23.318  12.232  1.00  0.00     0.061 C 
ATOM      6  C   UNL     1      19.797  23.505  15.600  1.00  0.00     0.102 C 
ATOM      7  C   UNL     1      21.229  23.429  15.044  1.00  0.00     0.115 C 
ATOM      8  C   UNL     1      18.112  22.359  11.097  1.00  0.00    -0.020 A 
ATOM      9  C   UNL     1      20.252  21.303  11.972  1.00  0.00    -0.011 A 
ATOM     10  C   UNL     1      19.201  21.462  11.060  1.00  0.00     0.010 A 
ATOM     11  C   UNL     1      21.294  22.538  13.830  1.00  0.00    -0.007 C 
ATOM     12  C   UNL     1      19.099  20.687   9.917  1.00  0.00     0.046 A 
ATOM     13  C   UNL     1      17.519  24.104  15.140  1.00  0.00     0.106 C 
ATOM     14  C   UNL     1      17.353  22.127   9.973  1.00  0.00     0.087 A 
ATOM     15  C   UNL     1      21.205  20.318  11.686  1.00  0.00     0.009 A 
ATOM     16  C   UNL     1      20.045  19.705   9.614  1.00  0.00     0.027 A 
ATOM     17  C   UNL     1      21.099  19.538  10.527  1.00  0.00     0.003 A 
ATOM     18  H   UNL     1      17.626  20.731   8.391  1.00  0.00     0.166 HD
ENDROOT
BRANCH   7  19
ATOM     19  C   UNL     1      22.180  22.913  16.127  1.00  0.00     0.225 C 
ATOM     20  O   UNL     1      23.363  22.641  15.953  1.00  0.00    -0.275 OA
ATOM     21  N   UNL     1      21.619  22.768  17.369  1.00  0.00    -0.369 N 
ATOM     22  H   UNL     1      22.203  22.384  18.101  1.00  0.00     0.159 HD
ATOM     23  H   UNL     1      20.626  22.856  17.531  1.00  0.00     0.159 HD
ENDBRANCH   7  19
TORSDOF 1
ENDMDL
MODEL 18
REMARK VINA RESULT:    -7.524      4.094      6.116
REMARK INTER + INTRA:          -8.061
REMARK INTER:                  -7.938
REMARK INTRA:                  -0.123
REMARK UNBOUND:                -0.097
REMARK SMILES CN1C[C@H](C(N)=O)C=C2c3cccc4[nH]cc(c34)C[C@H]21
REMARK SMILES IDX 2 1 15 2 20 3 9 4 19 5 3 6 4 7 17 8 10 9 18 10 8 11 14 12
REMARK SMILES IDX 1 13 16 14 11 15 13 16 12 17 5 19 7 20 6 21
REMARK H PARENT 15 18 6 22 6 23
ROOT
ATOM      1  N   UNL     1      21.917  21.207  14.273  1.00  0.00    -0.298 NA
ATOM      2  N   UNL     1      18.074  19.638   9.921  1.00  0.00    -0.361 N 
ATOM      3  C   UNL     1      20.922  20.415  13.483  1.00  0.00     0.091 C 
ATOM      4  C   UNL     1      21.507  19.074  12.931  1.00  0.00    -0.026 C 
ATOM      5  C   UNL     1      20.295  21.318  12.352  1.00  0.00     0.061 C 
ATOM      6  C   UNL     1      22.714  20.314  15.141  1.00  0.00     0.102 C 
ATOM      7  C   UNL     1      23.567  19.347  14.303  1.00  0.00     0.115 C 
ATOM      8  C   UNL     1      19.472  20.503  11.414  1.00  0.00    -0.020 A 
ATOM      9  C   UNL     1      20.665  18.328  11.967  1.00  0.00    -0.011 A 
ATOM     10  C   UNL     1      19.722  19.119  11.299  1.00  0.00     0.010 A 
ATOM     11  C   UNL     1      22.723  18.618  13.288  1.00  0.00    -0.007 C 
ATOM     12  C   UNL     1      18.845  18.586  10.369  1.00  0.00     0.046 A 
ATOM     13  C   UNL     1      21.262  22.225  15.100  1.00  0.00     0.106 C 
ATOM     14  C   UNL     1      18.446  20.807  10.550  1.00  0.00     0.087 A 
ATOM     15  C   UNL     1      20.688  16.962  11.660  1.00  0.00     0.009 A 
ATOM     16  C   UNL     1      18.860  17.228  10.047  1.00  0.00     0.027 A 
ATOM     17  C   UNL     1      19.800  16.428  10.717  1.00  0.00     0.003 A 
ATOM     18  H   UNL     1      17.342  19.557   9.229  1.00  0.00     0.166 HD
ENDROOT
BRANCH   7  19
ATOM     19  C   UNL     1      24.269  18.343  15.221  1.00  0.00     0.225 C 
ATOM     20  O   UNL     1      25.453  18.386  15.535  1.00  0.00    -0.275 OA
ATOM     21  N   UNL     1      23.466  17.345  15.707  1.00  0.00    -0.369 N 
ATOM     22  H   UNL     1      23.903  16.634  16.280  1.00  0.00     0.159 HD
ATOM     23  H   UNL     1      22.524  17.195  15.377  1.00  0.00     0.159 HD
ENDBRANCH   7  19
TORSDOF 1
ENDMDL
MODEL 19
REMARK VINA RESULT:    -7.489      3.714      6.376
REMARK INTER + INTRA:          -8.025
REMARK INTER:                  -7.918
REMARK INTRA:                  -0.106
REMARK UNBOUND:                -0.097
REMARK SMILES CN1C[C@H](C(N)=O)C=C2c3cccc4[nH]cc(c34)C[C@H]21
REMARK SMILES IDX 2 1 15 2 20 3 9 4 19 5 3 6 4 7 17 8 10 9 18 10 8 11 14 12
REMARK SMILES IDX 1 13 16 14 11 15 13 16 12 17 5 19 7 20 6 21
REMARK H PARENT 15 18 6 22 6 23
ROOT
ATOM      1  N   UNL     1      17.223  22.997  11.941  1.00  0.00    -0.298 NA
ATOM      2  N   UNL     1      20.512  18.481   9.713  1.00  0.00    -0.361 N 
ATOM      3  C   UNL     1      17.740  21.615  11.688  1.00  0.00     0.091 C 
ATOM      4  C   UNL     1      18.388  20.963  12.952  1.00  0.00    -0.026 C 
ATOM      5  C   UNL     1      18.708  21.625  10.443  1.00  0.00     0.061 C 
ATOM      6  C   UNL     1      16.551  23.063  13.256  1.00  0.00     0.102 C 
ATOM      7  C   UNL     1      17.548  22.807  14.399  1.00  0.00     0.115 C 
ATOM      8  C   UNL     1      19.409  20.317  10.302  1.00  0.00    -0.020 A 
ATOM      9  C   UNL     1      19.111  19.686  12.746  1.00  0.00    -0.011 A 
ATOM     10  C   UNL     1      19.553  19.484  11.433  1.00  0.00     0.010 A 
ATOM     11  C   UNL     1      18.320  21.532  14.171  1.00  0.00    -0.007 C 
ATOM     12  C   UNL     1      20.239  18.342  11.058  1.00  0.00     0.046 A 
ATOM     13  C   UNL     1      16.285  23.420  10.898  1.00  0.00     0.106 C 
ATOM     14  C   UNL     1      20.012  19.678   9.244  1.00  0.00     0.087 A 
ATOM     15  C   UNL     1      19.389  18.678  13.678  1.00  0.00     0.009 A 
ATOM     16  C   UNL     1      20.529  17.330  11.976  1.00  0.00     0.027 A 
ATOM     17  C   UNL     1      20.085  17.524  13.294  1.00  0.00     0.003 A 
ATOM     18  H   UNL     1      21.010  17.801   9.157  1.00  0.00     0.166 HD
ENDROOT
BRANCH   7  19
ATOM     19  C   UNL     1      16.802  22.739  15.734  1.00  0.00     0.225 C 
ATOM     20  O   UNL     1      17.319  22.882  16.837  1.00  0.00    -0.275 OA
ATOM     21  N   UNL     1      15.456  22.504  15.633  1.00  0.00    -0.369 N 
ATOM     22  H   UNL     1      14.935  22.404  16.495  1.00  0.00     0.159 HD
ATOM     23  H   UNL     1      15.012  22.254  14.762  1.00  0.00     0.159 HD
ENDBRANCH   7  19
TORSDOF 1
ENDMDL
MODEL 20
REMARK VINA RESULT:    -7.452      4.803      6.766
REMARK INTER + INTRA:          -7.985
REMARK INTER:                  -7.862
REMARK INTRA:                  -0.122
REMARK UNBOUND:                -0.097
REMARK SMILES CN1C[C@H](C(N)=O)C=C2c3cccc4[nH]cc(c34)C[C@H]21
REMARK SMILES IDX 2 1 15 2 20 3 9 4 19 5 3 6 4 7 17 8 10 9 18 10 8 11 14 12
REMARK SMILES IDX 1 13 16 14 11 15 13 16 12 17 5 19 7 20 6 21
REMARK H PARENT 15 18 6 22 6 23
ROOT
ATOM      1  N   UNL     1      21.618  20.708  14.430  1.00  0.00    -0.298 NA
ATOM      2  N   UNL     1      18.056  19.859   9.658  1.00  0.00    -0.361 N 
ATOM      3  C   UNL     1      20.918  20.945  13.128  1.00  0.00     0.091 C 
ATOM      4  C   UNL     1      19.931  22.157  13.175  1.00  0.00    -0.026 C 
ATOM      5  C   UNL     1      20.225  19.613  12.642  1.00  0.00     0.061 C 
ATOM      6  C   UNL     1      22.025  21.993  15.037  1.00  0.00     0.102 C 
ATOM      7  C   UNL     1      20.797  22.842  15.407  1.00  0.00     0.115 C 
ATOM      8  C   UNL     1      19.339  19.870  11.472  1.00  0.00    -0.020 A 
ATOM      9  C   UNL     1      19.042  22.337  12.004  1.00  0.00    -0.011 A 
ATOM     10  C   UNL     1      18.832  21.169  11.259  1.00  0.00     0.010 A 
ATOM     11  C   UNL     1      19.865  22.991  14.230  1.00  0.00    -0.007 C 
ATOM     12  C   UNL     1      18.035  21.155  10.127  1.00  0.00     0.046 A 
ATOM     13  C   UNL     1      22.800  19.859  14.259  1.00  0.00     0.106 C 
ATOM     14  C   UNL     1      18.845  19.069  10.468  1.00  0.00     0.087 A 
ATOM     15  C   UNL     1      18.413  23.505  11.555  1.00  0.00     0.009 A 
ATOM     16  C   UNL     1      17.396  22.310   9.670  1.00  0.00     0.027 A 
ATOM     17  C   UNL     1      17.606  23.485  10.409  1.00  0.00     0.003 A 
ATOM     18  H   UNL     1      17.560  19.538   8.839  1.00  0.00     0.166 HD
ENDROOT
BRANCH   7  19
ATOM     19  C   UNL     1      21.247  24.220  15.898  1.00  0.00     0.225 C 
ATOM     20  O   UNL     1      21.593  24.479  17.046  1.00  0.00    -0.275 OA
ATOM     21  N   UNL     1      21.252  25.202  14.943  1.00  0.00    -0.369 N 
ATOM     22  H   UNL     1      21.497  26.138  15.239  1.00  0.00     0.159 HD
ATOM     23  H   UNL     1      20.856  25.069  14.024  1.00  0.00     0.159 HD
ENDBRANCH   7  19
TORSDOF 1
ENDMDL
