MODEL 1
REMARK VINA RESULT:    -9.453      0.000      0.000
REMARK INTER + INTRA:         -10.106
REMARK INTER:                 -10.005
REMARK INTRA:                  -0.100
REMARK UNBOUND:                -0.100
REMARK SMILES CN1C[C@H](C(N)=O)C=C2c3cccc4[nH]cc(c34)C[C@H]21
REMARK SMILES IDX 2 1 15 2 20 3 9 4 19 5 3 6 4 7 17 8 10 9 18 10 8 11 14 12
REMARK SMILES IDX 1 13 16 14 11 15 13 16 12 17 5 19 7 20 6 21
REMARK H PARENT 15 18 6 22 6 23
ROOT
ATOM      1  N   UNL     1     -13.240 -18.116  17.627  1.00  0.00    -0.298 NA
ATOM      2  N   UNL     1      -9.089 -19.833  21.627  1.00  0.00    -0.361 N 
ATOM      3  C   UNL     1     -12.120 -18.053  18.618  1.00  0.00     0.091 C 
ATOM      4  C   UNL     1     -10.771 -17.578  17.987  1.00  0.00    -0.026 C 
ATOM      5  C   UNL     1     -11.989 -19.434  19.368  1.00  0.00     0.061 C 
ATOM      6  C   UNL     1     -13.197 -16.947  16.725  1.00  0.00     0.102 C 
ATOM      7  C   UNL     1     -11.920 -16.959  15.866  1.00  0.00     0.115 C 
ATOM      8  C   UNL     1     -10.750 -19.477  20.195  1.00  0.00    -0.020 A 
ATOM      9  C   UNL     1      -9.563 -17.685  18.838  1.00  0.00    -0.011 A 
ATOM     10  C   UNL     1      -9.671 -18.628  19.868  1.00  0.00     0.010 A 
ATOM     11  C   UNL     1     -10.690 -17.114  16.725  1.00  0.00    -0.007 C 
ATOM     12  C   UNL     1      -8.641 -18.855  20.765  1.00  0.00     0.046 A 
ATOM     13  C   UNL     1     -14.545 -18.164  18.293  1.00  0.00     0.106 C 
ATOM     14  C   UNL     1     -10.370 -20.219  21.290  1.00  0.00     0.087 A 
ATOM     15  C   UNL     1      -8.364 -16.968  18.749  1.00  0.00     0.009 A 
ATOM     16  C   UNL     1      -7.437 -18.152  20.686  1.00  0.00     0.027 A 
ATOM     17  C   UNL     1      -7.323 -17.202  19.659  1.00  0.00     0.003 A 
ATOM     18  H   UNL     1      -8.551 -20.212  22.393  1.00  0.00     0.166 HD
ENDROOT
BRANCH   7  19
ATOM     19  C   UNL     1     -11.831 -15.668  15.048  1.00  0.00     0.225 C 
ATOM     20  O   UNL     1     -12.690 -14.793  15.021  1.00  0.00    -0.275 OA
ATOM     21  N   UNL     1     -10.683 -15.526  14.315  1.00  0.00    -0.369 N 
ATOM     22  H   UNL     1     -10.607 -14.709  13.723  1.00  0.00     0.159 HD
ATOM     23  H   UNL     1     -10.012 -16.273  14.205  1.00  0.00     0.159 HD
ENDBRANCH   7  19
TORSDOF 1
ENDMDL
MODEL 2
REMARK VINA RESULT:    -9.327      3.011      4.368
REMARK INTER + INTRA:          -9.972
REMARK INTER:                  -9.855
REMARK INTRA:                  -0.117
REMARK UNBOUND:                -0.100
REMARK SMILES CN1C[C@H](C(N)=O)C=C2c3cccc4[nH]cc(c34)C[C@H]21
REMARK SMILES IDX 2 1 15 2 20 3 9 4 19 5 3 6 4 7 17 8 10 9 18 10 8 11 14 12
REMARK SMILES IDX 1 13 16 14 11 15 13 16 12 17 5 19 7 20 6 21
REMARK H PARENT 15 18 6 22 6 23
ROOT
ATOM      1  N   UNL     1     -12.082 -19.012  21.778  1.00  0.00    -0.298 NA
ATOM      2  N   UNL     1      -8.022 -21.365  25.541  1.00  0.00    -0.361 N 
ATOM      3  C   UNL     1     -10.819 -19.196  22.560  1.00  0.00     0.091 C 
ATOM      4  C   UNL     1      -9.569 -19.448  21.655  1.00  0.00    -0.026 C 
ATOM      5  C   UNL     1     -11.022 -20.321  23.647  1.00  0.00     0.061 C 
ATOM      6  C   UNL     1     -11.831 -18.178  20.584  1.00  0.00     0.102 C 
ATOM      7  C   UNL     1     -10.871 -18.882  19.610  1.00  0.00     0.115 C 
ATOM      8  C   UNL     1      -9.726 -20.682  24.289  1.00  0.00    -0.020 A 
ATOM      9  C   UNL     1      -8.320 -19.849  22.343  1.00  0.00    -0.011 A 
ATOM     10  C   UNL     1      -8.519 -20.429  23.602  1.00  0.00     0.010 A 
ATOM     11  C   UNL     1      -9.617 -19.333  20.314  1.00  0.00    -0.007 C 
ATOM     12  C   UNL     1      -7.463 -20.855  24.389  1.00  0.00     0.046 A 
ATOM     13  C   UNL     1     -13.132 -18.391  22.589  1.00  0.00     0.106 C 
ATOM     14  C   UNL     1      -9.397 -21.265  25.491  1.00  0.00     0.087 A 
ATOM     15  C   UNL     1      -6.997 -19.710  21.904  1.00  0.00     0.009 A 
ATOM     16  C   UNL     1      -6.139 -20.729  23.963  1.00  0.00     0.027 A 
ATOM     17  C   UNL     1      -5.931 -20.144  22.703  1.00  0.00     0.003 A 
ATOM     18  H   UNL     1      -7.496 -21.757  26.309  1.00  0.00     0.166 HD
ENDROOT
BRANCH   7  19
ATOM     19  C   UNL     1     -10.517 -17.940  18.456  1.00  0.00     0.225 C 
ATOM     20  O   UNL     1     -11.331 -17.398  17.716  1.00  0.00    -0.275 OA
ATOM     21  N   UNL     1      -9.177 -17.714  18.285  1.00  0.00    -0.369 N 
ATOM     22  H   UNL     1      -8.899 -17.135  17.503  1.00  0.00     0.159 HD
ATOM     23  H   UNL     1      -8.469 -18.235  18.783  1.00  0.00     0.159 HD
ENDBRANCH   7  19
TORSDOF 1
ENDMDL
MODEL 3
REMARK VINA RESULT:    -9.034      3.244      5.885
REMARK INTER + INTRA:          -9.662
REMARK INTER:                  -9.564
REMARK INTRA:                  -0.098
REMARK UNBOUND:                -0.100
REMARK SMILES CN1C[C@H](C(N)=O)C=C2c3cccc4[nH]cc(c34)C[C@H]21
REMARK SMILES IDX 2 1 15 2 20 3 9 4 19 5 3 6 4 7 17 8 10 9 18 10 8 11 14 12
REMARK SMILES IDX 1 13 16 14 11 15 13 16 12 17 5 19 7 20 6 21
REMARK H PARENT 15 18 6 22 6 23
ROOT
ATOM      1  N   UNL     1     -12.259 -17.339  17.369  1.00  0.00    -0.298 NA
ATOM      2  N   UNL     1     -16.479 -14.706  20.750  1.00  0.00    -0.361 N 
ATOM      3  C   UNL     1     -13.548 -16.694  17.773  1.00  0.00     0.091 C 
ATOM      4  C   UNL     1     -13.792 -15.320  17.067  1.00  0.00    -0.026 C 
ATOM      5  C   UNL     1     -13.627 -16.594  19.345  1.00  0.00     0.061 C 
ATOM      6  C   UNL     1     -12.039 -17.185  15.915  1.00  0.00     0.102 C 
ATOM      7  C   UNL     1     -11.865 -15.704  15.538  1.00  0.00     0.115 C 
ATOM      8  C   UNL     1     -14.788 -15.760  19.768  1.00  0.00    -0.020 A 
ATOM      9  C   UNL     1     -14.932 -14.512  17.559  1.00  0.00    -0.011 A 
ATOM     10  C   UNL     1     -15.324 -14.813  18.869  1.00  0.00     0.010 A 
ATOM     11  C   UNL     1     -13.000 -14.869  16.075  1.00  0.00    -0.007 C 
ATOM     12  C   UNL     1     -16.378 -14.162  19.487  1.00  0.00     0.046 A 
ATOM     13  C   UNL     1     -12.240 -18.764  17.711  1.00  0.00     0.106 C 
ATOM     14  C   UNL     1     -15.517 -15.678  20.932  1.00  0.00     0.087 A 
ATOM     15  C   UNL     1     -15.655 -13.519  16.886  1.00  0.00     0.009 A 
ATOM     16  C   UNL     1     -17.105 -13.166  18.832  1.00  0.00     0.027 A 
ATOM     17  C   UNL     1     -16.720 -12.861  17.517  1.00  0.00     0.003 A 
ATOM     18  H   UNL     1     -17.160 -14.427  21.441  1.00  0.00     0.166 HD
ENDROOT
BRANCH   7  19
ATOM     19  C   UNL     1     -11.782 -15.562  14.015  1.00  0.00     0.225 C 
ATOM     20  O   UNL     1     -12.542 -16.099  13.217  1.00  0.00    -0.275 OA
ATOM     21  N   UNL     1     -10.770 -14.758  13.563  1.00  0.00    -0.369 N 
ATOM     22  H   UNL     1     -10.652 -14.676  12.561  1.00  0.00     0.159 HD
ATOM     23  H   UNL     1     -10.046 -14.401  14.171  1.00  0.00     0.159 HD
ENDBRANCH   7  19
TORSDOF 1
ENDMDL
MODEL 4
REMARK VINA RESULT:    -8.993      4.056      6.333
REMARK INTER + INTRA:          -9.618
REMARK INTER:                  -9.508
REMARK INTRA:                  -0.110
REMARK UNBOUND:                -0.100
REMARK SMILES CN1C[C@H](C(N)=O)C=C2c3cccc4[nH]cc(c34)C[C@H]21
REMARK SMILES IDX 2 1 15 2 20 3 9 4 19 5 3 6 4 7 17 8 10 9 18 10 8 11 14 12
REMARK SMILES IDX 1 13 16 14 11 15 13 16 12 17 5 19 7 20 6 21
REMARK H PARENT 15 18 6 22 6 23
ROOT
ATOM      1  N   UNL     1     -11.343 -18.671  21.149  1.00  0.00    -0.298 NA
ATOM      2  N   UNL     1      -6.032 -20.908  22.871  1.00  0.00    -0.361 N 
ATOM      3  C   UNL     1     -10.325 -19.522  21.841  1.00  0.00     0.091 C 
ATOM      4  C   UNL     1     -10.323 -19.332  23.393  1.00  0.00    -0.026 C 
ATOM      5  C   UNL     1      -8.904 -19.289  21.196  1.00  0.00     0.061 C 
ATOM      6  C   UNL     1     -12.609 -18.658  21.911  1.00  0.00     0.102 C 
ATOM      7  C   UNL     1     -12.419 -17.992  23.285  1.00  0.00     0.115 C 
ATOM      8  C   UNL     1      -7.838 -19.948  22.003  1.00  0.00    -0.020 A 
ATOM      9  C   UNL     1      -9.214 -19.971  24.140  1.00  0.00    -0.011 A 
ATOM     10  C   UNL     1      -8.073 -20.221  23.368  1.00  0.00     0.010 A 
ATOM     11  C   UNL     1     -11.262 -18.608  24.031  1.00  0.00    -0.007 C 
ATOM     12  C   UNL     1      -6.944 -20.820  23.901  1.00  0.00     0.046 A 
ATOM     13  C   UNL     1     -11.605 -19.145  19.787  1.00  0.00     0.106 C 
ATOM     14  C   UNL     1      -6.565 -20.380  21.713  1.00  0.00     0.087 A 
ATOM     15  C   UNL     1      -9.175 -20.357  25.485  1.00  0.00     0.009 A 
ATOM     16  C   UNL     1      -6.887 -21.206  25.242  1.00  0.00     0.027 A 
ATOM     17  C   UNL     1      -8.029 -20.962  26.021  1.00  0.00     0.003 A 
ATOM     18  H   UNL     1      -5.106 -21.301  22.957  1.00  0.00     0.166 HD
ENDROOT
BRANCH   7  19
ATOM     19  C   UNL     1     -13.704 -18.121  24.107  1.00  0.00     0.225 C 
ATOM     20  O   UNL     1     -14.834 -18.200  23.638  1.00  0.00    -0.275 OA
ATOM     21  N   UNL     1     -13.521 -18.152  25.464  1.00  0.00    -0.369 N 
ATOM     22  H   UNL     1     -14.349 -18.188  26.045  1.00  0.00     0.159 HD
ATOM     23  H   UNL     1     -12.628 -17.962  25.898  1.00  0.00     0.159 HD
ENDBRANCH   7  19
TORSDOF 1
ENDMDL
MODEL 5
REMARK VINA RESULT:    -8.884      4.578      7.184
REMARK INTER + INTRA:          -9.504
REMARK INTER:                  -9.398
REMARK INTRA:                  -0.106
REMARK UNBOUND:                -0.100
REMARK SMILES CN1C[C@H](C(N)=O)C=C2c3cccc4[nH]cc(c34)C[C@H]21
REMARK SMILES IDX 2 1 15 2 20 3 9 4 19 5 3 6 4 7 17 8 10 9 18 10 8 11 14 12
REMARK SMILES IDX 1 13 16 14 11 15 13 16 12 17 5 19 7 20 6 21
REMARK H PARENT 15 18 6 22 6 23
ROOT
ATOM      1  N   UNL     1      -9.611 -19.157  24.923  1.00  0.00    -0.298 NA
ATOM      2  N   UNL     1     -13.971 -18.458  20.840  1.00  0.00    -0.361 N 
ATOM      3  C   UNL     1     -10.557 -19.450  23.801  1.00  0.00     0.091 C 
ATOM      4  C   UNL     1      -9.833 -19.681  22.435  1.00  0.00    -0.026 C 
ATOM      5  C   UNL     1     -11.661 -18.325  23.724  1.00  0.00     0.061 C 
ATOM      6  C   UNL     1      -8.421 -20.029  24.835  1.00  0.00     0.102 C 
ATOM      7  C   UNL     1      -7.613 -19.732  23.561  1.00  0.00     0.115 C 
ATOM      8  C   UNL     1     -12.480 -18.467  22.486  1.00  0.00    -0.020 A 
ATOM      9  C   UNL     1     -10.693 -19.768  21.232  1.00  0.00    -0.011 A 
ATOM     10  C   UNL     1     -11.942 -19.151  21.375  1.00  0.00     0.010 A 
ATOM     11  C   UNL     1      -8.493 -19.775  22.337  1.00  0.00    -0.007 C 
ATOM     12  C   UNL     1     -12.877 -19.143  20.354  1.00  0.00     0.046 A 
ATOM     13  C   UNL     1     -10.250 -19.343  26.229  1.00  0.00     0.106 C 
ATOM     14  C   UNL     1     -13.740 -18.042  22.134  1.00  0.00     0.087 A 
ATOM     15  C   UNL     1     -10.421 -20.388  20.006  1.00  0.00     0.009 A 
ATOM     16  C   UNL     1     -12.619 -19.751  19.124  1.00  0.00     0.027 A 
ATOM     17  C   UNL     1     -11.370 -20.375  18.974  1.00  0.00     0.003 A 
ATOM     18  H   UNL     1     -14.817 -18.286  20.316  1.00  0.00     0.166 HD
ENDROOT
BRANCH   7  19
ATOM     19  C   UNL     1      -6.471 -20.743  23.423  1.00  0.00     0.225 C 
ATOM     20  O   UNL     1      -6.022 -21.426  24.337  1.00  0.00    -0.275 OA
ATOM     21  N   UNL     1      -5.951 -20.859  22.161  1.00  0.00    -0.369 N 
ATOM     22  H   UNL     1      -5.162 -21.481  22.038  1.00  0.00     0.159 HD
ATOM     23  H   UNL     1      -6.198 -20.229  21.411  1.00  0.00     0.159 HD
ENDBRANCH   7  19
TORSDOF 1
ENDMDL
MODEL 6
REMARK VINA RESULT:    -8.834      3.920      5.950
REMARK INTER + INTRA:          -9.450
REMARK INTER:                  -9.331
REMARK INTRA:                  -0.120
REMARK UNBOUND:                -0.100
REMARK SMILES CN1C[C@H](C(N)=O)C=C2c3cccc4[nH]cc(c34)C[C@H]21
REMARK SMILES IDX 2 1 15 2 20 3 9 4 19 5 3 6 4 7 17 8 10 9 18 10 8 11 14 12
REMARK SMILES IDX 1 13 16 14 11 15 13 16 12 17 5 19 7 20 6 21
REMARK H PARENT 15 18 6 22 6 23
ROOT
ATOM      1  N   UNL     1     -17.377 -14.793  16.787  1.00  0.00    -0.298 NA
ATOM      2  N   UNL     1     -12.087 -17.505  17.698  1.00  0.00    -0.361 N 
ATOM      3  C   UNL     1     -15.906 -15.067  16.761  1.00  0.00     0.091 C 
ATOM      4  C   UNL     1     -15.353 -15.307  15.318  1.00  0.00    -0.026 C 
ATOM      5  C   UNL     1     -15.564 -16.248  17.749  1.00  0.00     0.061 C 
ATOM      6  C   UNL     1     -17.754 -13.898  15.673  1.00  0.00     0.102 C 
ATOM      7  C   UNL     1     -17.511 -14.575  14.314  1.00  0.00     0.115 C 
ATOM      8  C   UNL     1     -14.150 -16.691  17.581  1.00  0.00    -0.020 A 
ATOM      9  C   UNL     1     -13.957 -15.790  15.212  1.00  0.00    -0.011 A 
ATOM     10  C   UNL     1     -13.486 -16.438  16.362  1.00  0.00     0.010 A 
ATOM     11  C   UNL     1     -16.104 -15.110  14.218  1.00  0.00    -0.007 C 
ATOM     12  C   UNL     1     -12.201 -16.946  16.443  1.00  0.00     0.046 A 
ATOM     13  C   UNL     1     -17.790 -14.186  18.055  1.00  0.00     0.106 C 
ATOM     14  C   UNL     1     -13.265 -17.356  18.398  1.00  0.00     0.087 A 
ATOM     15  C   UNL     1     -13.069 -15.671  14.136  1.00  0.00     0.009 A 
ATOM     16  C   UNL     1     -11.306 -16.840  15.376  1.00  0.00     0.027 A 
ATOM     17  C   UNL     1     -11.770 -16.189  14.222  1.00  0.00     0.003 A 
ATOM     18  H   UNL     1     -11.256 -17.960  18.049  1.00  0.00     0.166 HD
ENDROOT
BRANCH   7  19
ATOM     19  C   UNL     1     -17.772 -13.578  13.182  1.00  0.00     0.225 C 
ATOM     20  O   UNL     1     -18.865 -13.092  12.911  1.00  0.00    -0.275 OA
ATOM     21  N   UNL     1     -16.668 -13.230  12.450  1.00  0.00    -0.369 N 
ATOM     22  H   UNL     1     -16.807 -12.611  11.662  1.00  0.00     0.159 HD
ATOM     23  H   UNL     1     -15.778 -13.699  12.552  1.00  0.00     0.159 HD
ENDBRANCH   7  19
TORSDOF 1
ENDMDL
MODEL 7
REMARK VINA RESULT:    -8.790      3.968      7.761
REMARK INTER + INTRA:          -9.404
REMARK INTER:                  -9.307
REMARK INTRA:                  -0.098
REMARK UNBOUND:                -0.100
REMARK SMILES CN1C[C@H](C(N)=O)C=C2c3cccc4[nH]cc(c34)C[C@H]21
REMARK SMILES IDX 2 1 15 2 20 3 9 4 19 5 3 6 4 7 17 8 10 9 18 10 8 11 14 12
REMARK SMILES IDX 1 13 16 14 11 15 13 16 12 17 5 19 7 20 6 21
REMARK H PARENT 15 18 6 22 6 23
ROOT
ATOM      1  N   UNL     1     -13.813 -16.479  17.526  1.00  0.00    -0.298 NA
ATOM      2  N   UNL     1     -19.332 -14.766  15.860  1.00  0.00    -0.361 N 
ATOM      3  C   UNL     1     -15.057 -16.318  16.710  1.00  0.00     0.091 C 
ATOM      4  C   UNL     1     -14.821 -15.527  15.383  1.00  0.00    -0.026 C 
ATOM      5  C   UNL     1     -16.203 -15.693  17.597  1.00  0.00     0.061 C 
ATOM      6  C   UNL     1     -12.661 -16.790  16.654  1.00  0.00     0.102 C 
ATOM      7  C   UNL     1     -12.353 -15.619  15.706  1.00  0.00     0.115 C 
ATOM      8  C   UNL     1     -17.378 -15.315  16.761  1.00  0.00    -0.020 A 
ATOM      9  C   UNL     1     -16.027 -15.137  14.616  1.00  0.00    -0.011 A 
ATOM     10  C   UNL     1     -17.197 -15.071  15.383  1.00  0.00     0.010 A 
ATOM     11  C   UNL     1     -13.589 -15.188  14.956  1.00  0.00    -0.007 C 
ATOM     12  C   UNL     1     -18.419 -14.731  14.828  1.00  0.00     0.046 A 
ATOM     13  C   UNL     1     -13.960 -17.537  18.529  1.00  0.00     0.106 C 
ATOM     14  C   UNL     1     -18.711 -15.119  17.039  1.00  0.00     0.087 A 
ATOM     15  C   UNL     1     -16.139 -14.848  13.250  1.00  0.00     0.009 A 
ATOM     16  C   UNL     1     -18.546 -14.434  13.470  1.00  0.00     0.027 A 
ATOM     17  C   UNL     1     -17.378 -14.503  12.693  1.00  0.00     0.003 A 
ATOM     18  H   UNL     1     -20.316 -14.558  15.762  1.00  0.00     0.166 HD
ENDROOT
BRANCH   7  19
ATOM     19  C   UNL     1     -11.254 -16.023  14.721  1.00  0.00     0.225 C 
ATOM     20  O   UNL     1     -10.740 -17.134  14.658  1.00  0.00    -0.275 OA
ATOM     21  N   UNL     1     -10.854 -15.033  13.863  1.00  0.00    -0.369 N 
ATOM     22  H   UNL     1     -10.095 -15.245  13.228  1.00  0.00     0.159 HD
ATOM     23  H   UNL     1     -11.154 -14.073  13.962  1.00  0.00     0.159 HD
ENDBRANCH   7  19
TORSDOF 1
ENDMDL
MODEL 8
REMARK VINA RESULT:    -8.732      3.788      5.551
REMARK INTER + INTRA:          -9.342
REMARK INTER:                  -9.246
REMARK INTRA:                  -0.097
REMARK UNBOUND:                -0.100
REMARK SMILES CN1C[C@H](C(N)=O)C=C2c3cccc4[nH]cc(c34)C[C@H]21
REMARK SMILES IDX 2 1 15 2 20 3 9 4 19 5 3 6 4 7 17 8 10 9 18 10 8 11 14 12
REMARK SMILES IDX 1 13 16 14 11 15 13 16 12 17 5 19 7 20 6 21
REMARK H PARENT 15 18 6 22 6 23
ROOT
ATOM      1  N   UNL     1     -12.132 -19.370  24.308  1.00  0.00    -0.298 NA
ATOM      2  N   UNL     1      -6.550 -21.489  25.031  1.00  0.00    -0.361 N 
ATOM      3  C   UNL     1     -10.638 -19.453  24.288  1.00  0.00     0.091 C 
ATOM      4  C   UNL     1     -10.044 -19.449  22.842  1.00  0.00    -0.026 C 
ATOM      5  C   UNL     1     -10.158 -20.691  25.141  1.00  0.00     0.061 C 
ATOM      6  C   UNL     1     -12.608 -18.403  23.297  1.00  0.00     0.102 C 
ATOM      7  C   UNL     1     -12.266 -18.878  21.875  1.00  0.00     0.115 C 
ATOM      8  C   UNL     1      -8.699 -20.931  24.958  1.00  0.00    -0.020 A 
ATOM      9  C   UNL     1      -8.597 -19.739  22.715  1.00  0.00    -0.011 A 
ATOM     10  C   UNL     1      -8.060 -20.454  23.793  1.00  0.00     0.010 A 
ATOM     11  C   UNL     1     -10.802 -19.218  21.753  1.00  0.00    -0.007 C 
ATOM     12  C   UNL     1      -6.721 -20.805  23.847  1.00  0.00     0.046 A 
ATOM     13  C   UNL     1     -12.631 -18.973  25.628  1.00  0.00     0.106 C 
ATOM     14  C   UNL     1      -7.745 -21.572  25.714  1.00  0.00     0.087 A 
ATOM     15  C   UNL     1      -7.720 -19.383  21.683  1.00  0.00     0.009 A 
ATOM     16  C   UNL     1      -5.836 -20.462  22.823  1.00  0.00     0.027 A 
ATOM     17  C   UNL     1      -6.366 -19.741  21.740  1.00  0.00     0.003 A 
ATOM     18  H   UNL     1      -5.672 -21.876  25.347  1.00  0.00     0.166 HD
ENDROOT
BRANCH   7  19
ATOM     19  C   UNL     1     -12.641 -17.794  20.860  1.00  0.00     0.225 C 
ATOM     20  O   UNL     1     -13.027 -16.666  21.147  1.00  0.00    -0.275 OA
ATOM     21  N   UNL     1     -12.510 -18.162  19.547  1.00  0.00    -0.369 N 
ATOM     22  H   UNL     1     -12.794 -17.490  18.845  1.00  0.00     0.159 HD
ATOM     23  H   UNL     1     -12.322 -19.113  19.264  1.00  0.00     0.159 HD
ENDBRANCH   7  19
TORSDOF 1
ENDMDL
MODEL 9
REMARK VINA RESULT:    -8.617      1.854      2.697
REMARK INTER + INTRA:          -9.221
REMARK INTER:                  -9.104
REMARK INTRA:                  -0.118
REMARK UNBOUND:                -0.100
REMARK SMILES CN1C[C@H](C(N)=O)C=C2c3cccc4[nH]cc(c34)C[C@H]21
REMARK SMILES IDX 2 1 15 2 20 3 9 4 19 5 3 6 4 7 17 8 10 9 18 10 8 11 14 12
REMARK SMILES IDX 1 13 16 14 11 15 13 16 12 17 5 19 7 20 6 21
REMARK H PARENT 15 18 6 22 6 23
ROOT
ATOM      1  N   UNL     1     -15.026 -16.272  16.735  1.00  0.00    -0.298 NA
ATOM      2  N   UNL     1     -12.670 -18.947  21.580  1.00  0.00    -0.361 N 
ATOM      3  C   UNL     1     -14.086 -16.597  17.853  1.00  0.00     0.091 C 
ATOM      4  C   UNL     1     -12.702 -17.126  17.355  1.00  0.00    -0.026 C 
ATOM      5  C   UNL     1     -14.784 -17.580  18.871  1.00  0.00     0.061 C 
ATOM      6  C   UNL     1     -14.306 -15.592  15.638  1.00  0.00     0.102 C 
ATOM      7  C   UNL     1     -13.259 -16.523  15.004  1.00  0.00     0.115 C 
ATOM      8  C   UNL     1     -13.805 -18.097  19.870  1.00  0.00    -0.020 A 
ATOM      9  C   UNL     1     -11.787 -17.670  18.385  1.00  0.00    -0.011 A 
ATOM     10  C   UNL     1     -12.430 -18.104  19.551  1.00  0.00     0.010 A 
ATOM     11  C   UNL     1     -12.353 -17.116  16.054  1.00  0.00    -0.007 C 
ATOM     12  C   UNL     1     -11.729 -18.633  20.622  1.00  0.00     0.046 A 
ATOM     13  C   UNL     1     -16.129 -15.420  17.190  1.00  0.00     0.106 C 
ATOM     14  C   UNL     1     -13.935 -18.625  21.133  1.00  0.00     0.087 A 
ATOM     15  C   UNL     1     -10.392 -17.789  18.341  1.00  0.00     0.009 A 
ATOM     16  C   UNL     1     -10.340 -18.763  20.591  1.00  0.00     0.027 A 
ATOM     17  C   UNL     1      -9.687 -18.327  19.427  1.00  0.00     0.003 A 
ATOM     18  H   UNL     1     -12.458 -19.356  22.478  1.00  0.00     0.166 HD
ENDROOT
BRANCH   7  19
ATOM     19  C   UNL     1     -12.433 -15.750  13.972  1.00  0.00     0.225 C 
ATOM     20  O   UNL     1     -12.263 -16.094  12.808  1.00  0.00    -0.275 OA
ATOM     21  N   UNL     1     -11.868 -14.591  14.434  1.00  0.00    -0.369 N 
ATOM     22  H   UNL     1     -11.275 -14.076  13.797  1.00  0.00     0.159 HD
ATOM     23  H   UNL     1     -11.873 -14.335  15.411  1.00  0.00     0.159 HD
ENDBRANCH   7  19
TORSDOF 1
ENDMDL
MODEL 10
REMARK VINA RESULT:    -8.610      4.160      7.739
REMARK INTER + INTRA:          -9.214
REMARK INTER:                  -9.107
REMARK INTRA:                  -0.107
REMARK UNBOUND:                -0.100
REMARK SMILES CN1C[C@H](C(N)=O)C=C2c3cccc4[nH]cc(c34)C[C@H]21
REMARK SMILES IDX 2 1 15 2 20 3 9 4 19 5 3 6 4 7 17 8 10 9 18 10 8 11 14 12
REMARK SMILES IDX 1 13 16 14 11 15 13 16 12 17 5 19 7 20 6 21
REMARK H PARENT 15 18 6 22 6 23
ROOT
ATOM      1  N   UNL     1      -7.862 -20.211  22.155  1.00  0.00    -0.298 NA
ATOM      2  N   UNL     1     -12.834 -17.868  19.713  1.00  0.00    -0.361 N 
ATOM      3  C   UNL     1      -9.077 -19.357  21.965  1.00  0.00     0.091 C 
ATOM      4  C   UNL     1     -10.182 -19.617  23.040  1.00  0.00    -0.026 C 
ATOM      5  C   UNL     1      -9.613 -19.509  20.490  1.00  0.00     0.061 C 
ATOM      6  C   UNL     1      -7.517 -20.303  23.589  1.00  0.00     0.102 C 
ATOM      7  C   UNL     1      -8.623 -21.024  24.378  1.00  0.00     0.115 C 
ATOM      8  C   UNL     1     -10.941 -18.851  20.335  1.00  0.00    -0.020 A 
ATOM      9  C   UNL     1     -11.497 -18.974  22.812  1.00  0.00    -0.011 A 
ATOM     10  C   UNL     1     -11.751 -18.649  21.473  1.00  0.00     0.010 A 
ATOM     11  C   UNL     1      -9.971 -20.402  24.114  1.00  0.00    -0.007 C 
ATOM     12  C   UNL     1     -12.927 -18.035  21.078  1.00  0.00     0.046 A 
ATOM     13  C   UNL     1      -6.712 -19.684  21.415  1.00  0.00     0.106 C 
ATOM     14  C   UNL     1     -11.632 -18.361  19.251  1.00  0.00     0.087 A 
ATOM     15  C   UNL     1     -12.486 -18.649  23.749  1.00  0.00     0.009 A 
ATOM     16  C   UNL     1     -13.925 -17.709  21.999  1.00  0.00     0.027 A 
ATOM     17  C   UNL     1     -13.676 -18.029  23.344  1.00  0.00     0.003 A 
ATOM     18  H   UNL     1     -13.549 -17.447  19.137  1.00  0.00     0.166 HD
ENDROOT
BRANCH   7  19
ATOM     19  C   UNL     1      -8.308 -20.979  25.876  1.00  0.00     0.225 C 
ATOM     20  O   UNL     1      -8.815 -20.202  26.678  1.00  0.00    -0.275 OA
ATOM     21  N   UNL     1      -7.387 -21.899  26.301  1.00  0.00    -0.369 N 
ATOM     22  H   UNL     1      -7.115 -21.870  27.276  1.00  0.00     0.159 HD
ATOM     23  H   UNL     1      -6.851 -22.468  25.661  1.00  0.00     0.159 HD
ENDBRANCH   7  19
TORSDOF 1
ENDMDL
MODEL 11
REMARK VINA RESULT:    -8.559      2.831      6.911
REMARK INTER + INTRA:          -9.160
REMARK INTER:                  -9.057
REMARK INTRA:                  -0.103
REMARK UNBOUND:                -0.100
REMARK SMILES CN1C[C@H](C(N)=O)C=C2c3cccc4[nH]cc(c34)C[C@H]21
REMARK SMILES IDX 2 1 15 2 20 3 9 4 19 5 3 6 4 7 17 8 10 9 18 10 8 11 14 12
REMARK SMILES IDX 1 13 16 14 11 15 13 16 12 17 5 19 7 20 6 21
REMARK H PARENT 15 18 6 22 6 23
ROOT
ATOM      1  N   UNL     1     -11.481 -18.047  18.378  1.00  0.00    -0.298 NA
ATOM      2  N   UNL     1     -13.468 -15.385  13.364  1.00  0.00    -0.361 N 
ATOM      3  C   UNL     1     -12.216 -17.111  17.470  1.00  0.00     0.091 C 
ATOM      4  C   UNL     1     -13.768 -17.279  17.546  1.00  0.00    -0.026 C 
ATOM      5  C   UNL     1     -11.659 -17.243  16.000  1.00  0.00     0.061 C 
ATOM      6  C   UNL     1     -12.169 -18.147  19.682  1.00  0.00     0.102 C 
ATOM      7  C   UNL     1     -13.563 -18.777  19.524  1.00  0.00     0.115 C 
ATOM      8  C   UNL     1     -12.515 -16.493  15.037  1.00  0.00    -0.020 A 
ATOM      9  C   UNL     1     -14.567 -16.547  16.536  1.00  0.00    -0.011 A 
ATOM     10  C   UNL     1     -13.858 -16.220  15.372  1.00  0.00     0.010 A 
ATOM     11  C   UNL     1     -14.364 -18.064  18.464  1.00  0.00    -0.007 C 
ATOM     12  C   UNL     1     -14.445 -15.529  14.326  1.00  0.00     0.046 A 
ATOM     13  C   UNL     1     -10.098 -17.612  18.594  1.00  0.00     0.106 C 
ATOM     14  C   UNL     1     -12.291 -15.968  13.785  1.00  0.00     0.087 A 
ATOM     15  C   UNL     1     -15.905 -16.140  16.606  1.00  0.00     0.009 A 
ATOM     16  C   UNL     1     -15.780 -15.122  14.378  1.00  0.00     0.027 A 
ATOM     17  C   UNL     1     -16.496 -15.442  15.543  1.00  0.00     0.003 A 
ATOM     18  H   UNL     1     -13.601 -14.921  12.477  1.00  0.00     0.166 HD
ENDROOT
BRANCH   7  19
ATOM     19  C   UNL     1     -14.307 -18.737  20.862  1.00  0.00     0.225 C 
ATOM     20  O   UNL     1     -15.490 -19.016  21.016  1.00  0.00    -0.275 OA
ATOM     21  N   UNL     1     -13.545 -18.359  21.936  1.00  0.00    -0.369 N 
ATOM     22  H   UNL     1     -14.011 -18.273  22.830  1.00  0.00     0.159 HD
ATOM     23  H   UNL     1     -12.607 -17.998  21.837  1.00  0.00     0.159 HD
ENDBRANCH   7  19
TORSDOF 1
ENDMDL
MODEL 12
REMARK VINA RESULT:    -8.531      2.420      3.421
REMARK INTER + INTRA:          -9.130
REMARK INTER:                  -9.014
REMARK INTRA:                  -0.116
REMARK UNBOUND:                -0.100
REMARK SMILES CN1C[C@H](C(N)=O)C=C2c3cccc4[nH]cc(c34)C[C@H]21
REMARK SMILES IDX 2 1 15 2 20 3 9 4 19 5 3 6 4 7 17 8 10 9 18 10 8 11 14 12
REMARK SMILES IDX 1 13 16 14 11 15 13 16 12 17 5 19 7 20 6 21
REMARK H PARENT 15 18 6 22 6 23
ROOT
ATOM      1  N   UNL     1     -12.617 -18.910  21.035  1.00  0.00    -0.298 NA
ATOM      2  N   UNL     1      -8.301 -20.695  24.824  1.00  0.00    -0.361 N 
ATOM      3  C   UNL     1     -11.340 -18.929  21.816  1.00  0.00     0.091 C 
ATOM      4  C   UNL     1     -10.071 -19.048  20.910  1.00  0.00    -0.026 C 
ATOM      5  C   UNL     1     -11.406 -20.050  22.924  1.00  0.00     0.061 C 
ATOM      6  C   UNL     1     -12.469 -18.075  19.825  1.00  0.00     0.102 C 
ATOM      7  C   UNL     1     -11.435 -18.679  18.860  1.00  0.00     0.115 C 
ATOM      8  C   UNL     1     -10.075 -20.243  23.567  1.00  0.00    -0.020 A 
ATOM      9  C   UNL     1      -8.782 -19.285  21.600  1.00  0.00    -0.011 A 
ATOM     10  C   UNL     1      -8.909 -19.861  22.870  1.00  0.00     0.010 A 
ATOM     11  C   UNL     1     -10.134 -18.964  19.568  1.00  0.00    -0.007 C 
ATOM     12  C   UNL     1      -7.808 -20.144  23.660  1.00  0.00     0.046 A 
ATOM     13  C   UNL     1     -13.733 -18.402  21.839  1.00  0.00     0.106 C 
ATOM     14  C   UNL     1      -9.678 -20.760  24.778  1.00  0.00     0.087 A 
ATOM     15  C   UNL     1      -7.486 -18.999  21.153  1.00  0.00     0.009 A 
ATOM     16  C   UNL     1      -6.509 -19.870  23.227  1.00  0.00     0.027 A 
ATOM     17  C   UNL     1      -6.374 -19.289  21.956  1.00  0.00     0.003 A 
ATOM     18  H   UNL     1      -7.730 -21.007  25.597  1.00  0.00     0.166 HD
ENDROOT
BRANCH   7  19
ATOM     19  C   UNL     1     -11.197 -17.723  17.688  1.00  0.00     0.225 C 
ATOM     20  O   UNL     1     -12.079 -17.157  17.051  1.00  0.00    -0.275 OA
ATOM     21  N   UNL     1      -9.881 -17.512  17.372  1.00  0.00    -0.369 N 
ATOM     22  H   UNL     1      -9.683 -16.924  16.572  1.00  0.00     0.159 HD
ATOM     23  H   UNL     1      -9.130 -18.051  17.780  1.00  0.00     0.159 HD
ENDBRANCH   7  19
TORSDOF 1
ENDMDL
MODEL 13
REMARK VINA RESULT:    -8.476      4.502      7.410
REMARK INTER + INTRA:          -9.072
REMARK INTER:                  -8.966
REMARK INTRA:                  -0.106
REMARK UNBOUND:                -0.100
REMARK SMILES CN1C[C@H](C(N)=O)C=C2c3cccc4[nH]cc(c34)C[C@H]21
REMARK SMILES IDX 2 1 15 2 20 3 9 4 19 5 3 6 4 7 17 8 10 9 18 10 8 11 14 12
REMARK SMILES IDX 1 13 16 14 11 15 13 16 12 17 5 19 7 20 6 21
REMARK H PARENT 15 18 6 22 6 23
ROOT
ATOM      1  N   UNL     1     -12.710 -18.512  25.137  1.00  0.00    -0.298 NA
ATOM      2  N   UNL     1     -13.052 -16.488  19.484  1.00  0.00    -0.361 N 
ATOM      3  C   UNL     1     -12.859 -18.495  23.648  1.00  0.00     0.091 C 
ATOM      4  C   UNL     1     -11.704 -19.248  22.909  1.00  0.00    -0.026 C 
ATOM      5  C   UNL     1     -13.041 -17.012  23.144  1.00  0.00     0.061 C 
ATOM      6  C   UNL     1     -12.258 -19.842  25.596  1.00  0.00     0.102 C 
ATOM      7  C   UNL     1     -10.851 -20.161  25.063  1.00  0.00     0.115 C 
ATOM      8  C   UNL     1     -12.968 -16.942  21.657  1.00  0.00    -0.020 A 
ATOM      9  C   UNL     1     -11.653 -19.106  21.436  1.00  0.00    -0.011 A 
ATOM     10  C   UNL     1     -12.296 -17.960  20.948  1.00  0.00     0.010 A 
ATOM     11  C   UNL     1     -10.781 -19.974  23.568  1.00  0.00    -0.007 C 
ATOM     12  C   UNL     1     -12.354 -17.672  19.595  1.00  0.00     0.046 A 
ATOM     13  C   UNL     1     -13.968 -18.171  25.808  1.00  0.00     0.106 C 
ATOM     14  C   UNL     1     -13.429 -16.035  20.730  1.00  0.00     0.087 A 
ATOM     15  C   UNL     1     -11.068 -19.961  20.494  1.00  0.00     0.009 A 
ATOM     16  C   UNL     1     -11.770 -18.512  18.645  1.00  0.00     0.027 A 
ATOM     17  C   UNL     1     -11.127 -19.664  19.126  1.00  0.00     0.003 A 
ATOM     18  H   UNL     1     -13.253 -16.022  18.611  1.00  0.00     0.166 HD
ENDROOT
BRANCH   7  19
ATOM     19  C   UNL     1     -10.468 -21.597  25.431  1.00  0.00     0.225 C 
ATOM     20  O   UNL     1      -9.328 -22.048  25.410  1.00  0.00    -0.275 OA
ATOM     21  N   UNL     1     -11.515 -22.395  25.812  1.00  0.00    -0.369 N 
ATOM     22  H   UNL     1     -11.310 -23.364  26.017  1.00  0.00     0.159 HD
ATOM     23  H   UNL     1     -12.479 -22.107  25.721  1.00  0.00     0.159 HD
ENDBRANCH   7  19
TORSDOF 1
ENDMDL
MODEL 14
REMARK VINA RESULT:    -8.452      4.304      7.524
REMARK INTER + INTRA:          -9.047
REMARK INTER:                  -8.943
REMARK INTRA:                  -0.103
REMARK UNBOUND:                -0.100
REMARK SMILES CN1C[C@H](C(N)=O)C=C2c3cccc4[nH]cc(c34)C[C@H]21
REMARK SMILES IDX 2 1 15 2 20 3 9 4 19 5 3 6 4 7 17 8 10 9 18 10 8 11 14 12
REMARK SMILES IDX 1 13 16 14 11 15 13 16 12 17 5 19 7 20 6 21
REMARK H PARENT 15 18 6 22 6 23
ROOT
ATOM      1  N   UNL     1      -9.953 -20.311  24.050  1.00  0.00    -0.298 NA
ATOM      2  N   UNL     1     -11.641 -18.267  18.652  1.00  0.00    -0.361 N 
ATOM      3  C   UNL     1     -10.368 -19.374  22.960  1.00  0.00     0.091 C 
ATOM      4  C   UNL     1     -11.750 -18.694  23.231  1.00  0.00    -0.026 C 
ATOM      5  C   UNL     1     -10.315 -20.113  21.568  1.00  0.00     0.061 C 
ATOM      6  C   UNL     1     -10.267 -19.734  25.374  1.00  0.00     0.102 C 
ATOM      7  C   UNL     1     -11.785 -19.572  25.561  1.00  0.00     0.115 C 
ATOM      8  C   UNL     1     -10.932 -19.280  20.498  1.00  0.00    -0.020 A 
ATOM      9  C   UNL     1     -12.338 -17.915  22.117  1.00  0.00    -0.011 A 
ATOM     10  C   UNL     1     -11.868 -18.284  20.850  1.00  0.00     0.010 A 
ATOM     11  C   UNL     1     -12.396 -18.820  24.406  1.00  0.00    -0.007 C 
ATOM     12  C   UNL     1     -12.304 -17.656  19.695  1.00  0.00     0.046 A 
ATOM     13  C   UNL     1      -8.521 -20.615  23.983  1.00  0.00     0.106 C 
ATOM     14  C   UNL     1     -10.805 -19.255  19.128  1.00  0.00     0.087 A 
ATOM     15  C   UNL     1     -13.273 -16.874  22.175  1.00  0.00     0.009 A 
ATOM     16  C   UNL     1     -13.240 -16.621  19.736  1.00  0.00     0.027 A 
ATOM     17  C   UNL     1     -13.713 -16.243  21.003  1.00  0.00     0.003 A 
ATOM     18  H   UNL     1     -11.756 -18.023  17.678  1.00  0.00     0.166 HD
ENDROOT
BRANCH   7  19
ATOM     19  C   UNL     1     -12.072 -18.842  26.875  1.00  0.00     0.225 C 
ATOM     20  O   UNL     1     -13.135 -18.302  27.162  1.00  0.00    -0.275 OA
ATOM     21  N   UNL     1     -11.033 -18.825  27.767  1.00  0.00    -0.369 N 
ATOM     22  H   UNL     1     -11.166 -18.311  28.628  1.00  0.00     0.159 HD
ATOM     23  H   UNL     1     -10.104 -19.141  27.526  1.00  0.00     0.159 HD
ENDBRANCH   7  19
TORSDOF 1
ENDMDL
MODEL 15
REMARK VINA RESULT:    -8.390      3.449      4.862
REMARK INTER + INTRA:          -8.981
REMARK INTER:                  -8.874
REMARK INTRA:                  -0.106
REMARK UNBOUND:                -0.100
REMARK SMILES CN1C[C@H](C(N)=O)C=C2c3cccc4[nH]cc(c34)C[C@H]21
REMARK SMILES IDX 2 1 15 2 20 3 9 4 19 5 3 6 4 7 17 8 10 9 18 10 8 11 14 12
REMARK SMILES IDX 1 13 16 14 11 15 13 16 12 17 5 19 7 20 6 21
REMARK H PARENT 15 18 6 22 6 23
ROOT
ATOM      1  N   UNL     1     -16.477 -14.097  17.176  1.00  0.00    -0.298 NA
ATOM      2  N   UNL     1     -12.263 -17.004  20.332  1.00  0.00    -0.361 N 
ATOM      3  C   UNL     1     -15.146 -14.641  17.592  1.00  0.00     0.091 C 
ATOM      4  C   UNL     1     -14.565 -15.678  16.576  1.00  0.00    -0.026 C 
ATOM      5  C   UNL     1     -15.235 -15.210  19.060  1.00  0.00     0.061 C 
ATOM      6  C   UNL     1     -16.492 -13.824  15.723  1.00  0.00     0.102 C 
ATOM      7  C   UNL     1     -16.336 -15.124  14.916  1.00  0.00     0.115 C 
ATOM      8  C   UNL     1     -13.995 -15.955  19.419  1.00  0.00    -0.020 A 
ATOM      9  C   UNL     1     -13.358 -16.423  17.003  1.00  0.00    -0.011 A 
ATOM     10  C   UNL     1     -13.187 -16.488  18.392  1.00  0.00     0.010 A 
ATOM     11  C   UNL     1     -15.134 -15.909  15.378  1.00  0.00    -0.007 C 
ATOM     12  C   UNL     1     -12.109 -17.139  18.968  1.00  0.00     0.046 A 
ATOM     13  C   UNL     1     -16.807 -12.867  17.902  1.00  0.00     0.106 C 
ATOM     14  C   UNL     1     -13.406 -16.287  20.617  1.00  0.00     0.087 A 
ATOM     15  C   UNL     1     -12.385 -17.042  16.208  1.00  0.00     0.009 A 
ATOM     16  C   UNL     1     -11.134 -17.766  18.190  1.00  0.00     0.027 A 
ATOM     17  C   UNL     1     -11.296 -17.701  16.796  1.00  0.00     0.003 A 
ATOM     18  H   UNL     1     -11.627 -17.381  21.020  1.00  0.00     0.166 HD
ENDROOT
BRANCH   7  19
ATOM     19  C   UNL     1     -16.209 -14.798  13.425  1.00  0.00     0.225 C 
ATOM     20  O   UNL     1     -15.152 -14.720  12.810  1.00  0.00    -0.275 OA
ATOM     21  N   UNL     1     -17.398 -14.592  12.775  1.00  0.00    -0.369 N 
ATOM     22  H   UNL     1     -17.355 -14.327  11.800  1.00  0.00     0.159 HD
ATOM     23  H   UNL     1     -18.279 -14.518  13.263  1.00  0.00     0.159 HD
ENDBRANCH   7  19
TORSDOF 1
ENDMDL
MODEL 16
REMARK VINA RESULT:    -8.365      2.786      5.889
REMARK INTER + INTRA:          -8.954
REMARK INTER:                  -8.854
REMARK INTRA:                  -0.100
REMARK UNBOUND:                -0.100
REMARK SMILES CN1C[C@H](C(N)=O)C=C2c3cccc4[nH]cc(c34)C[C@H]21
REMARK SMILES IDX 2 1 15 2 20 3 9 4 19 5 3 6 4 7 17 8 10 9 18 10 8 11 14 12
REMARK SMILES IDX 1 13 16 14 11 15 13 16 12 17 5 19 7 20 6 21
REMARK H PARENT 15 18 6 22 6 23
ROOT
ATOM      1  N   UNL     1     -12.758 -17.649  21.057  1.00  0.00    -0.298 NA
ATOM      2  N   UNL     1     -14.185 -14.094  16.421  1.00  0.00    -0.361 N 
ATOM      3  C   UNL     1     -13.124 -17.207  19.675  1.00  0.00     0.091 C 
ATOM      4  C   UNL     1     -12.002 -17.491  18.624  1.00  0.00    -0.026 C 
ATOM      5  C   UNL     1     -13.570 -15.694  19.696  1.00  0.00     0.061 C 
ATOM      6  C   UNL     1     -12.074 -18.958  21.015  1.00  0.00     0.102 C 
ATOM      7  C   UNL     1     -10.730 -18.856  20.273  1.00  0.00     0.115 C 
ATOM      8  C   UNL     1     -13.726 -15.164  18.312  1.00  0.00    -0.020 A 
ATOM      9  C   UNL     1     -12.186 -16.902  17.277  1.00  0.00    -0.011 A 
ATOM     10  C   UNL     1     -13.038 -15.790  17.251  1.00  0.00     0.010 A 
ATOM     11  C   UNL     1     -10.905 -18.214  18.920  1.00  0.00    -0.007 C 
ATOM     12  C   UNL     1     -13.330 -15.118  16.075  1.00  0.00     0.046 A 
ATOM     13  C   UNL     1     -13.937 -17.748  21.921  1.00  0.00     0.106 C 
ATOM     14  C   UNL     1     -14.432 -14.112  17.777  1.00  0.00     0.087 A 
ATOM     15  C   UNL     1     -11.638 -17.318  16.058  1.00  0.00     0.009 A 
ATOM     16  C   UNL     1     -12.787 -15.518  14.852  1.00  0.00     0.027 A 
ATOM     17  C   UNL     1     -11.936 -16.635  14.871  1.00  0.00     0.003 A 
ATOM     18  H   UNL     1     -14.571 -13.426  15.769  1.00  0.00     0.166 HD
ENDROOT
BRANCH   7  19
ATOM     19  C   UNL     1     -10.114 -20.249  20.119  1.00  0.00     0.225 C 
ATOM     20  O   UNL     1     -10.661 -21.204  19.580  1.00  0.00    -0.275 OA
ATOM     21  N   UNL     1      -8.852 -20.383  20.635  1.00  0.00    -0.369 N 
ATOM     22  H   UNL     1      -8.428 -21.301  20.596  1.00  0.00     0.159 HD
ATOM     23  H   UNL     1      -8.415 -19.667  21.198  1.00  0.00     0.159 HD
ENDBRANCH   7  19
TORSDOF 1
ENDMDL
MODEL 17
REMARK VINA RESULT:    -8.333      3.212      6.373
REMARK INTER + INTRA:          -8.920
REMARK INTER:                  -8.817
REMARK INTRA:                  -0.103
REMARK UNBOUND:                -0.100
REMARK SMILES CN1C[C@H](C(N)=O)C=C2c3cccc4[nH]cc(c34)C[C@H]21
REMARK SMILES IDX 2 1 15 2 20 3 9 4 19 5 3 6 4 7 17 8 10 9 18 10 8 11 14 12
REMARK SMILES IDX 1 13 16 14 11 15 13 16 12 17 5 19 7 20 6 21
REMARK H PARENT 15 18 6 22 6 23
ROOT
ATOM      1  N   UNL     1     -12.262 -16.914  15.768  1.00  0.00    -0.298 NA
ATOM      2  N   UNL     1     -17.552 -14.734  17.621  1.00  0.00    -0.361 N 
ATOM      3  C   UNL     1     -13.274 -16.120  16.533  1.00  0.00     0.091 C 
ATOM      4  C   UNL     1     -13.323 -16.492  18.051  1.00  0.00    -0.026 C 
ATOM      5  C   UNL     1     -14.683 -16.231  15.833  1.00  0.00     0.061 C 
ATOM      6  C   UNL     1     -11.018 -17.056  16.553  1.00  0.00     0.102 C 
ATOM      7  C   UNL     1     -11.263 -17.873  17.833  1.00  0.00     0.115 C 
ATOM      8  C   UNL     1     -15.752 -15.640  16.688  1.00  0.00    -0.020 A 
ATOM      9  C   UNL     1     -14.432 -15.912  18.843  1.00  0.00    -0.011 A 
ATOM     10  C   UNL     1     -15.546 -15.537  18.080  1.00  0.00     0.010 A 
ATOM     11  C   UNL     1     -12.421 -17.315  18.620  1.00  0.00    -0.007 C 
ATOM     12  C   UNL     1     -16.671 -14.970  18.654  1.00  0.00     0.046 A 
ATOM     13  C   UNL     1     -11.951 -16.290  14.479  1.00  0.00     0.106 C 
ATOM     14  C   UNL     1     -17.004 -15.137  16.421  1.00  0.00     0.087 A 
ATOM     15  C   UNL     1     -14.497 -15.686  20.224  1.00  0.00     0.009 A 
ATOM     16  C   UNL     1     -16.753 -14.745  20.030  1.00  0.00     0.027 A 
ATOM     17  C   UNL     1     -15.639 -15.114  20.801  1.00  0.00     0.003 A 
ATOM     18  H   UNL     1     -18.469 -14.325  17.733  1.00  0.00     0.166 HD
ENDROOT
BRANCH   7  19
ATOM     19  C   UNL     1      -9.997 -17.882  18.694  1.00  0.00     0.225 C 
ATOM     20  O   UNL     1      -9.941 -18.267  19.857  1.00  0.00    -0.275 OA
ATOM     21  N   UNL     1      -8.869 -17.422  18.069  1.00  0.00    -0.369 N 
ATOM     22  H   UNL     1      -8.021 -17.367  18.619  1.00  0.00     0.159 HD
ATOM     23  H   UNL     1      -8.892 -16.978  17.162  1.00  0.00     0.159 HD
ENDBRANCH   7  19
TORSDOF 1
ENDMDL
MODEL 18
REMARK VINA RESULT:    -8.325      3.212      4.559
REMARK INTER + INTRA:          -8.912
REMARK INTER:                  -8.806
REMARK INTRA:                  -0.106
REMARK UNBOUND:                -0.100
REMARK SMILES CN1C[C@H](C(N)=O)C=C2c3cccc4[nH]cc(c34)C[C@H]21
REMARK SMILES IDX 2 1 15 2 20 3 9 4 19 5 3 6 4 7 17 8 10 9 18 10 8 11 14 12
REMARK SMILES IDX 1 13 16 14 11 15 13 16 12 17 5 19 7 20 6 21
REMARK H PARENT 15 18 6 22 6 23
ROOT
ATOM      1  N   UNL     1     -14.492 -14.670  17.065  1.00  0.00    -0.298 NA
ATOM      2  N   UNL     1     -15.212 -16.336  22.799  1.00  0.00    -0.361 N 
ATOM      3  C   UNL     1     -14.175 -15.047  18.479  1.00  0.00     0.091 C 
ATOM      4  C   UNL     1     -13.359 -16.376  18.589  1.00  0.00    -0.026 C 
ATOM      5  C   UNL     1     -15.498 -15.070  19.337  1.00  0.00     0.061 C 
ATOM      6  C   UNL     1     -13.326 -14.917  16.191  1.00  0.00     0.102 C 
ATOM      7  C   UNL     1     -12.994 -16.418  16.126  1.00  0.00     0.115 C 
ATOM      8  C   UNL     1     -15.248 -15.655  20.685  1.00  0.00    -0.020 A 
ATOM      9  C   UNL     1     -13.181 -16.937  19.948  1.00  0.00    -0.011 A 
ATOM     10  C   UNL     1     -14.147 -16.518  20.872  1.00  0.00     0.010 A 
ATOM     11  C   UNL     1     -12.857 -17.004  17.509  1.00  0.00    -0.007 C 
ATOM     12  C   UNL     1     -14.130 -16.937  22.191  1.00  0.00     0.046 A 
ATOM     13  C   UNL     1     -14.885 -13.262  16.959  1.00  0.00     0.106 C 
ATOM     14  C   UNL     1     -15.899 -15.555  21.893  1.00  0.00     0.087 A 
ATOM     15  C   UNL     1     -12.183 -17.801  20.414  1.00  0.00     0.009 A 
ATOM     16  C   UNL     1     -13.145 -17.803  22.669  1.00  0.00     0.027 A 
ATOM     17  C   UNL     1     -12.171 -18.224  21.750  1.00  0.00     0.003 A 
ATOM     18  H   UNL     1     -15.464 -16.457  23.770  1.00  0.00     0.166 HD
ENDROOT
BRANCH   7  19
ATOM     19  C   UNL     1     -11.701 -16.630  15.334  1.00  0.00     0.225 C 
ATOM     20  O   UNL     1     -10.681 -17.145  15.778  1.00  0.00    -0.275 OA
ATOM     21  N   UNL     1     -11.742 -16.201  14.034  1.00  0.00    -0.369 N 
ATOM     22  H   UNL     1     -10.892 -16.279  13.490  1.00  0.00     0.159 HD
ATOM     23  H   UNL     1     -12.510 -15.658  13.664  1.00  0.00     0.159 HD
ENDBRANCH   7  19
TORSDOF 1
ENDMDL
MODEL 19
REMARK VINA RESULT:    -8.279      4.938      7.698
REMARK INTER + INTRA:          -8.863
REMARK INTER:                  -8.752
REMARK INTRA:                  -0.111
REMARK UNBOUND:                -0.100
REMARK SMILES CN1C[C@H](C(N)=O)C=C2c3cccc4[nH]cc(c34)C[C@H]21
REMARK SMILES IDX 2 1 15 2 20 3 9 4 19 5 3 6 4 7 17 8 10 9 18 10 8 11 14 12
REMARK SMILES IDX 1 13 16 14 11 15 13 16 12 17 5 19 7 20 6 21
REMARK H PARENT 15 18 6 22 6 23
ROOT
ATOM      1  N   UNL     1     -11.960 -19.203  23.998  1.00  0.00    -0.298 NA
ATOM      2  N   UNL     1     -12.566 -16.692  18.566  1.00  0.00    -0.361 N 
ATOM      3  C   UNL     1     -12.208 -18.182  22.932  1.00  0.00     0.091 C 
ATOM      4  C   UNL     1     -13.677 -17.647  22.927  1.00  0.00    -0.026 C 
ATOM      5  C   UNL     1     -11.761 -18.751  21.530  1.00  0.00     0.061 C 
ATOM      6  C   UNL     1     -12.625 -18.807  25.256  1.00  0.00     0.102 C 
ATOM      7  C   UNL     1     -14.154 -18.786  25.089  1.00  0.00     0.115 C 
ATOM      8  C   UNL     1     -12.199 -17.851  20.425  1.00  0.00    -0.020 A 
ATOM      9  C   UNL     1     -14.071 -16.794  21.782  1.00  0.00    -0.011 A 
ATOM     10  C   UNL     1     -13.288 -16.978  20.635  1.00  0.00     0.010 A 
ATOM     11  C   UNL     1     -14.559 -17.956  23.897  1.00  0.00    -0.007 C 
ATOM     12  C   UNL     1     -13.510 -16.258  19.473  1.00  0.00     0.046 A 
ATOM     13  C   UNL     1     -10.526 -19.385  24.246  1.00  0.00     0.106 C 
ATOM     14  C   UNL     1     -11.765 -17.660  19.134  1.00  0.00     0.087 A 
ATOM     15  C   UNL     1     -15.096 -15.842  21.712  1.00  0.00     0.009 A 
ATOM     16  C   UNL     1     -14.531 -15.310  19.386  1.00  0.00     0.027 A 
ATOM     17  C   UNL     1     -15.318 -15.117  20.533  1.00  0.00     0.003 A 
ATOM     18  H   UNL     1     -12.480 -16.348  17.620  1.00  0.00     0.166 HD
ENDROOT
BRANCH   7  19
ATOM     19  C   UNL     1     -14.808 -18.235  26.360  1.00  0.00     0.225 C 
ATOM     20  O   UNL     1     -15.901 -18.582  26.795  1.00  0.00    -0.275 OA
ATOM     21  N   UNL     1     -14.073 -17.291  27.026  1.00  0.00    -0.369 N 
ATOM     22  H   UNL     1     -14.491 -16.867  27.844  1.00  0.00     0.159 HD
ATOM     23  H   UNL     1     -13.233 -16.883  26.640  1.00  0.00     0.159 HD
ENDBRANCH   7  19
TORSDOF 1
ENDMDL
MODEL 20
REMARK VINA RESULT:    -8.237      3.116      4.208
REMARK INTER + INTRA:          -8.819
REMARK INTER:                  -8.712
REMARK INTRA:                  -0.107
REMARK UNBOUND:                -0.100
REMARK SMILES CN1C[C@H](C(N)=O)C=C2c3cccc4[nH]cc(c34)C[C@H]21
REMARK SMILES IDX 2 1 15 2 20 3 9 4 19 5 3 6 4 7 17 8 10 9 18 10 8 11 14 12
REMARK SMILES IDX 1 13 16 14 11 15 13 16 12 17 5 19 7 20 6 21
REMARK H PARENT 15 18 6 22 6 23
ROOT
ATOM      1  N   UNL     1     -13.270 -15.832  16.214  1.00  0.00    -0.298 NA
ATOM      2  N   UNL     1     -10.961 -19.114  20.693  1.00  0.00    -0.361 N 
ATOM      3  C   UNL     1     -13.176 -16.657  17.459  1.00  0.00     0.091 C 
ATOM      4  C   UNL     1     -13.576 -15.868  18.748  1.00  0.00    -0.026 C 
ATOM      5  C   UNL     1     -11.744 -17.310  17.563  1.00  0.00     0.061 C 
ATOM      6  C   UNL     1     -14.487 -14.994  16.241  1.00  0.00     0.102 C 
ATOM      7  C   UNL     1     -14.423 -13.965  17.383  1.00  0.00     0.115 C 
ATOM      8  C   UNL     1     -11.545 -17.951  18.894  1.00  0.00    -0.020 A 
ATOM      9  C   UNL     1     -13.314 -16.534  20.044  1.00  0.00    -0.011 A 
ATOM     10  C   UNL     1     -12.320 -17.519  19.992  1.00  0.00     0.010 A 
ATOM     11  C   UNL     1     -14.111 -14.633  18.699  1.00  0.00    -0.007 C 
ATOM     12  C   UNL     1     -11.951 -18.250  21.109  1.00  0.00     0.046 A 
ATOM     13  C   UNL     1     -13.289 -16.671  15.012  1.00  0.00     0.106 C 
ATOM     14  C   UNL     1     -10.706 -18.941  19.349  1.00  0.00     0.087 A 
ATOM     15  C   UNL     1     -13.933 -16.315  21.281  1.00  0.00     0.009 A 
ATOM     16  C   UNL     1     -12.554 -18.038  22.350  1.00  0.00     0.027 A 
ATOM     17  C   UNL     1     -13.555 -17.055  22.410  1.00  0.00     0.003 A 
ATOM     18  H   UNL     1     -10.490 -19.777  21.293  1.00  0.00     0.166 HD
ENDROOT
BRANCH   7  19
ATOM     19  C   UNL     1     -15.752 -13.211  17.478  1.00  0.00     0.225 C 
ATOM     20  O   UNL     1     -16.616 -13.413  18.324  1.00  0.00    -0.275 OA
ATOM     21  N   UNL     1     -15.936 -12.243  16.527  1.00  0.00    -0.369 N 
ATOM     22  H   UNL     1     -16.823 -11.754  16.526  1.00  0.00     0.159 HD
ATOM     23  H   UNL     1     -15.315 -12.129  15.739  1.00  0.00     0.159 HD
ENDBRANCH   7  19
TORSDOF 1
ENDMDL
