MODEL 1
REMARK VINA RESULT:    -9.207      0.000      0.000
REMARK INTER + INTRA:          -9.851
REMARK INTER:                  -9.746
REMARK INTRA:                  -0.106
REMARK UNBOUND:                -0.106
REMARK SMILES CN1C[C@H](C(N)=O)C=C2c3cccc4[nH]cc(c34)C[C@H]21
REMARK SMILES IDX 2 1 15 2 20 3 9 4 19 5 3 6 4 7 17 8 10 9 18 10 8 11 14 12
REMARK SMILES IDX 1 13 16 14 11 15 13 16 12 17 5 19 7 20 6 21
REMARK H PARENT 15 18 6 22 6 23
ROOT
ATOM      1  N   UNL     1     -28.559 -11.377 145.462  1.00  0.00    -0.298 NA
ATOM      2  N   UNL     1     -30.236  -7.343 141.328  1.00  0.00    -0.361 N 
ATOM      3  C   UNL     1     -28.983 -10.786 144.154  1.00  0.00     0.091 C 
ATOM      4  C   UNL     1     -27.889 -10.909 143.044  1.00  0.00    -0.026 C 
ATOM      5  C   UNL     1     -29.469  -9.301 144.370  1.00  0.00     0.061 C 
ATOM      6  C   UNL     1     -27.841 -12.651 145.244  1.00  0.00     0.102 C 
ATOM      7  C   UNL     1     -26.527 -12.420 144.479  1.00  0.00     0.115 C 
ATOM      8  C   UNL     1     -29.685  -8.616 143.064  1.00  0.00    -0.020 A 
ATOM      9  C   UNL     1     -28.134 -10.170 141.783  1.00  0.00    -0.011 A 
ATOM     10  C   UNL     1     -29.016  -9.090 141.915  1.00  0.00     0.010 A 
ATOM     11  C   UNL     1     -26.764 -11.628 143.218  1.00  0.00    -0.007 C 
ATOM     12  C   UNL     1     -29.365  -8.293 140.838  1.00  0.00     0.046 A 
ATOM     13  C   UNL     1     -29.706 -11.614 146.343  1.00  0.00     0.106 C 
ATOM     14  C   UNL     1     -30.437  -7.530 142.680  1.00  0.00     0.087 A 
ATOM     15  C   UNL     1     -27.616 -10.422 140.507  1.00  0.00     0.009 A 
ATOM     16  C   UNL     1     -28.852  -8.528 139.560  1.00  0.00     0.027 A 
ATOM     17  C   UNL     1     -27.971  -9.612 139.420  1.00  0.00     0.003 A 
ATOM     18  H   UNL     1     -30.661  -6.615 140.773  1.00  0.00     0.166 HD
ENDROOT
BRANCH   7  19
ATOM     19  C   UNL     1     -25.878 -13.765 144.142  1.00  0.00     0.225 C 
ATOM     20  O   UNL     1     -26.158 -14.834 144.674  1.00  0.00    -0.275 OA
ATOM     21  N   UNL     1     -24.924 -13.717 143.161  1.00  0.00    -0.369 N 
ATOM     22  H   UNL     1     -24.437 -14.577 142.942  1.00  0.00     0.159 HD
ATOM     23  H   UNL     1     -24.570 -12.847 142.788  1.00  0.00     0.159 HD
ENDBRANCH   7  19
TORSDOF 1
ENDMDL
MODEL 2
REMARK VINA RESULT:    -9.206      4.134      6.144
REMARK INTER + INTRA:          -9.850
REMARK INTER:                  -9.743
REMARK INTRA:                  -0.107
REMARK UNBOUND:                -0.106
REMARK SMILES CN1C[C@H](C(N)=O)C=C2c3cccc4[nH]cc(c34)C[C@H]21
REMARK SMILES IDX 2 1 15 2 20 3 9 4 19 5 3 6 4 7 17 8 10 9 18 10 8 11 14 12
REMARK SMILES IDX 1 13 16 14 11 15 13 16 12 17 5 19 7 20 6 21
REMARK H PARENT 15 18 6 22 6 23
ROOT
ATOM      1  N   UNL     1     -25.555 -12.844 144.652  1.00  0.00    -0.298 NA
ATOM      2  N   UNL     1     -30.718 -11.818 147.563  1.00  0.00    -0.361 N 
ATOM      3  C   UNL     1     -26.578 -12.802 145.743  1.00  0.00     0.091 C 
ATOM      4  C   UNL     1     -27.037 -14.222 146.208  1.00  0.00    -0.026 C 
ATOM      5  C   UNL     1     -27.786 -11.883 145.311  1.00  0.00     0.061 C 
ATOM      6  C   UNL     1     -24.566 -13.910 144.914  1.00  0.00     0.102 C 
ATOM      7  C   UNL     1     -25.228 -15.298 144.877  1.00  0.00     0.115 C 
ATOM      8  C   UNL     1     -28.916 -11.998 146.276  1.00  0.00    -0.020 A 
ATOM      9  C   UNL     1     -28.194 -14.280 147.131  1.00  0.00    -0.011 A 
ATOM     10  C   UNL     1     -29.026 -13.154 147.077  1.00  0.00     0.010 A 
ATOM     11  C   UNL     1     -26.434 -15.348 145.781  1.00  0.00    -0.007 C 
ATOM     12  C   UNL     1     -30.149 -13.034 147.878  1.00  0.00     0.046 A 
ATOM     13  C   UNL     1     -24.858 -11.561 144.517  1.00  0.00     0.106 C 
ATOM     14  C   UNL     1     -29.976 -11.180 146.590  1.00  0.00     0.087 A 
ATOM     15  C   UNL     1     -28.541 -15.290 148.037  1.00  0.00     0.009 A 
ATOM     16  C   UNL     1     -30.512 -14.035 148.781  1.00  0.00     0.027 A 
ATOM     17  C   UNL     1     -29.680 -15.165 148.843  1.00  0.00     0.003 A 
ATOM     18  H   UNL     1     -31.559 -11.453 147.985  1.00  0.00     0.166 HD
ENDROOT
BRANCH   7  19
ATOM     19  C   UNL     1     -24.215 -16.368 145.292  1.00  0.00     0.225 C 
ATOM     20  O   UNL     1     -24.130 -16.860 146.412  1.00  0.00    -0.275 OA
ATOM     21  N   UNL     1     -23.366 -16.778 144.298  1.00  0.00    -0.369 N 
ATOM     22  H   UNL     1     -22.650 -17.449 144.544  1.00  0.00     0.159 HD
ATOM     23  H   UNL     1     -23.312 -16.313 143.403  1.00  0.00     0.159 HD
ENDBRANCH   7  19
TORSDOF 1
ENDMDL
MODEL 3
REMARK VINA RESULT:    -9.059      3.389      5.141
REMARK INTER + INTRA:          -9.694
REMARK INTER:                  -9.588
REMARK INTRA:                  -0.106
REMARK UNBOUND:                -0.106
REMARK SMILES CN1C[C@H](C(N)=O)C=C2c3cccc4[nH]cc(c34)C[C@H]21
REMARK SMILES IDX 2 1 15 2 20 3 9 4 19 5 3 6 4 7 17 8 10 9 18 10 8 11 14 12
REMARK SMILES IDX 1 13 16 14 11 15 13 16 12 17 5 19 7 20 6 21
REMARK H PARENT 15 18 6 22 6 23
ROOT
ATOM      1  N   UNL     1     -26.976 -16.046 146.773  1.00  0.00    -0.298 NA
ATOM      2  N   UNL     1     -30.922 -11.543 147.334  1.00  0.00    -0.361 N 
ATOM      3  C   UNL     1     -27.898 -14.923 146.418  1.00  0.00     0.091 C 
ATOM      4  C   UNL     1     -27.155 -13.693 145.801  1.00  0.00    -0.026 C 
ATOM      5  C   UNL     1     -28.780 -14.538 147.668  1.00  0.00     0.061 C 
ATOM      6  C   UNL     1     -25.956 -16.229 145.719  1.00  0.00     0.102 C 
ATOM      7  C   UNL     1     -25.041 -14.996 145.617  1.00  0.00     0.115 C 
ATOM      8  C   UNL     1     -29.545 -13.284 147.415  1.00  0.00    -0.020 A 
ATOM      9  C   UNL     1     -27.953 -12.458 145.614  1.00  0.00    -0.011 A 
ATOM     10  C   UNL     1     -29.079 -12.373 146.443  1.00  0.00     0.010 A 
ATOM     11  C   UNL     1     -25.850 -13.731 145.473  1.00  0.00    -0.007 C 
ATOM     12  C   UNL     1     -29.943 -11.292 146.397  1.00  0.00     0.046 A 
ATOM     13  C   UNL     1     -27.706 -17.304 146.961  1.00  0.00     0.106 C 
ATOM     14  C   UNL     1     -30.690 -12.750 147.959  1.00  0.00     0.087 A 
ATOM     15  C   UNL     1     -27.731 -11.400 144.725  1.00  0.00     0.009 A 
ATOM     16  C   UNL     1     -29.732 -10.227 145.520  1.00  0.00     0.027 A 
ATOM     17  C   UNL     1     -28.607 -10.307 144.683  1.00  0.00     0.003 A 
ATOM     18  H   UNL     1     -31.696 -10.925 147.533  1.00  0.00     0.166 HD
ENDROOT
BRANCH   7  19
ATOM     19  C   UNL     1     -24.091 -15.151 144.427  1.00  0.00     0.225 C 
ATOM     20  O   UNL     1     -23.836 -14.272 143.611  1.00  0.00    -0.275 OA
ATOM     21  N   UNL     1     -23.501 -16.382 144.315  1.00  0.00    -0.369 N 
ATOM     22  H   UNL     1     -22.903 -16.541 143.514  1.00  0.00     0.159 HD
ATOM     23  H   UNL     1     -23.776 -17.171 144.882  1.00  0.00     0.159 HD
ENDBRANCH   7  19
TORSDOF 1
ENDMDL
MODEL 4
REMARK VINA RESULT:    -9.054      2.079      2.944
REMARK INTER + INTRA:          -9.689
REMARK INTER:                  -9.581
REMARK INTRA:                  -0.108
REMARK UNBOUND:                -0.106
REMARK SMILES CN1C[C@H](C(N)=O)C=C2c3cccc4[nH]cc(c34)C[C@H]21
REMARK SMILES IDX 2 1 15 2 20 3 9 4 19 5 3 6 4 7 17 8 10 9 18 10 8 11 14 12
REMARK SMILES IDX 1 13 16 14 11 15 13 16 12 17 5 19 7 20 6 21
REMARK H PARENT 15 18 6 22 6 23
ROOT
ATOM      1  N   UNL     1     -26.549 -12.911 145.851  1.00  0.00    -0.298 NA
ATOM      2  N   UNL     1     -28.686  -9.927 141.087  1.00  0.00    -0.361 N 
ATOM      3  C   UNL     1     -27.175 -12.636 144.520  1.00  0.00     0.091 C 
ATOM      4  C   UNL     1     -26.335 -13.188 143.323  1.00  0.00    -0.026 C 
ATOM      5  C   UNL     1     -27.490 -11.096 144.385  1.00  0.00     0.061 C 
ATOM      6  C   UNL     1     -25.991 -14.280 145.885  1.00  0.00     0.102 C 
ATOM      7  C   UNL     1     -24.839 -14.431 144.878  1.00  0.00     0.115 C 
ATOM      8  C   UNL     1     -27.905 -10.757 142.993  1.00  0.00    -0.020 A 
ATOM      9  C   UNL     1     -26.765 -12.782 141.964  1.00  0.00    -0.011 A 
ATOM     10  C   UNL     1     -27.515 -11.600 141.931  1.00  0.00     0.010 A 
ATOM     11  C   UNL     1     -25.258 -13.976 143.502  1.00  0.00    -0.007 C 
ATOM     12  C   UNL     1     -28.006 -11.077 140.747  1.00  0.00     0.046 A 
ATOM     13  C   UNL     1     -27.515 -12.756 146.943  1.00  0.00     0.106 C 
ATOM     14  C   UNL     1     -28.630  -9.722 142.450  1.00  0.00     0.087 A 
ATOM     15  C   UNL     1     -26.530 -13.427 140.744  1.00  0.00     0.009 A 
ATOM     16  C   UNL     1     -27.776 -11.705 139.521  1.00  0.00     0.027 A 
ATOM     17  C   UNL     1     -27.028 -12.893 139.547  1.00  0.00     0.003 A 
ATOM     18  H   UNL     1     -29.154  -9.321 140.427  1.00  0.00     0.166 HD
ENDROOT
BRANCH   7  19
ATOM     19  C   UNL     1     -24.378 -15.891 144.831  1.00  0.00     0.225 C 
ATOM     20  O   UNL     1     -23.358 -16.288 144.279  1.00  0.00    -0.275 OA
ATOM     21  N   UNL     1     -25.199 -16.777 145.475  1.00  0.00    -0.369 N 
ATOM     22  H   UNL     1     -24.955 -17.758 145.427  1.00  0.00     0.159 HD
ATOM     23  H   UNL     1     -26.109 -16.518 145.830  1.00  0.00     0.159 HD
ENDBRANCH   7  19
TORSDOF 1
ENDMDL
MODEL 5
REMARK VINA RESULT:    -8.983      4.153      6.585
REMARK INTER + INTRA:          -9.614
REMARK INTER:                  -9.506
REMARK INTRA:                  -0.108
REMARK UNBOUND:                -0.106
REMARK SMILES CN1C[C@H](C(N)=O)C=C2c3cccc4[nH]cc(c34)C[C@H]21
REMARK SMILES IDX 2 1 15 2 20 3 9 4 19 5 3 6 4 7 17 8 10 9 18 10 8 11 14 12
REMARK SMILES IDX 1 13 16 14 11 15 13 16 12 17 5 19 7 20 6 21
REMARK H PARENT 15 18 6 22 6 23
ROOT
ATOM      1  N   UNL     1     -25.011 -14.330 144.661  1.00  0.00    -0.298 NA
ATOM      2  N   UNL     1     -30.085 -11.930 146.823  1.00  0.00    -0.361 N 
ATOM      3  C   UNL     1     -26.072 -13.897 145.624  1.00  0.00     0.091 C 
ATOM      4  C   UNL     1     -26.785 -15.097 146.329  1.00  0.00    -0.026 C 
ATOM      5  C   UNL     1     -27.084 -12.924 144.904  1.00  0.00     0.061 C 
ATOM      6  C   UNL     1     -24.229 -15.450 145.224  1.00  0.00     0.102 C 
ATOM      7  C   UNL     1     -25.109 -16.696 145.416  1.00  0.00     0.115 C 
ATOM      8  C   UNL     1     -28.270 -12.655 145.767  1.00  0.00    -0.020 A 
ATOM      9  C   UNL     1     -27.985 -14.777 147.137  1.00  0.00    -0.011 A 
ATOM     10  C   UNL     1     -28.614 -13.578 146.777  1.00  0.00     0.010 A 
ATOM     11  C   UNL     1     -26.355 -16.366 146.199  1.00  0.00    -0.007 C 
ATOM     12  C   UNL     1     -29.745 -13.119 147.431  1.00  0.00     0.046 A 
ATOM     13  C   UNL     1     -24.105 -13.227 144.327  1.00  0.00     0.106 C 
ATOM     14  C   UNL     1     -29.195 -11.638 145.810  1.00  0.00     0.087 A 
ATOM     15  C   UNL     1     -28.544 -15.501 148.196  1.00  0.00     0.009 A 
ATOM     16  C   UNL     1     -30.318 -13.832 148.486  1.00  0.00     0.027 A 
ATOM     17  C   UNL     1     -29.690 -15.033 148.855  1.00  0.00     0.003 A 
ATOM     18  H   UNL     1     -30.876 -11.358 147.084  1.00  0.00     0.166 HD
ENDROOT
BRANCH   7  19
ATOM     19  C   UNL     1     -24.312 -17.790 146.132  1.00  0.00     0.225 C 
ATOM     20  O   UNL     1     -23.090 -17.884 146.131  1.00  0.00    -0.275 OA
ATOM     21  N   UNL     1     -25.070 -18.704 146.816  1.00  0.00    -0.369 N 
ATOM     22  H   UNL     1     -24.583 -19.470 147.263  1.00  0.00     0.159 HD
ATOM     23  H   UNL     1     -26.076 -18.742 146.740  1.00  0.00     0.159 HD
ENDBRANCH   7  19
TORSDOF 1
ENDMDL
MODEL 6
REMARK VINA RESULT:    -8.894      4.479      8.355
REMARK INTER + INTRA:          -9.520
REMARK INTER:                  -9.409
REMARK INTRA:                  -0.110
REMARK UNBOUND:                -0.106
REMARK SMILES CN1C[C@H](C(N)=O)C=C2c3cccc4[nH]cc(c34)C[C@H]21
REMARK SMILES IDX 2 1 15 2 20 3 9 4 19 5 3 6 4 7 17 8 10 9 18 10 8 11 14 12
REMARK SMILES IDX 1 13 16 14 11 15 13 16 12 17 5 19 7 20 6 21
REMARK H PARENT 15 18 6 22 6 23
ROOT
ATOM      1  N   UNL     1     -26.973 -13.431 145.381  1.00  0.00    -0.298 NA
ATOM      2  N   UNL     1     -27.913 -17.223 149.954  1.00  0.00    -0.361 N 
ATOM      3  C   UNL     1     -26.797 -14.145 146.684  1.00  0.00     0.091 C 
ATOM      4  C   UNL     1     -25.485 -14.994 146.744  1.00  0.00    -0.026 C 
ATOM      5  C   UNL     1     -28.087 -14.993 147.010  1.00  0.00     0.061 C 
ATOM      6  C   UNL     1     -25.685 -12.868 144.923  1.00  0.00     0.102 C 
ATOM      7  C   UNL     1     -24.672 -13.985 144.618  1.00  0.00     0.115 C 
ATOM      8  C   UNL     1     -27.856 -15.885 148.181  1.00  0.00    -0.020 A 
ATOM      9  C   UNL     1     -25.329 -15.898 147.908  1.00  0.00    -0.011 A 
ATOM     10  C   UNL     1     -26.538 -16.257 148.519  1.00  0.00     0.010 A 
ATOM     11  C   UNL     1     -24.544 -14.934 145.782  1.00  0.00    -0.007 C 
ATOM     12  C   UNL     1     -26.581 -17.088 149.625  1.00  0.00     0.046 A 
ATOM     13  C   UNL     1     -27.961 -12.353 145.487  1.00  0.00     0.106 C 
ATOM     14  C   UNL     1     -28.697 -16.496 149.083  1.00  0.00     0.087 A 
ATOM     15  C   UNL     1     -24.152 -16.413 148.464  1.00  0.00     0.009 A 
ATOM     16  C   UNL     1     -25.416 -17.615 150.188  1.00  0.00     0.027 A 
ATOM     17  C   UNL     1     -24.201 -17.256 149.583  1.00  0.00     0.003 A 
ATOM     18  H   UNL     1     -28.260 -17.778 150.723  1.00  0.00     0.166 HD
ENDROOT
BRANCH   7  19
ATOM     19  C   UNL     1     -23.309 -13.373 144.286  1.00  0.00     0.225 C 
ATOM     20  O   UNL     1     -22.488 -13.860 143.516  1.00  0.00    -0.275 OA
ATOM     21  N   UNL     1     -23.037 -12.189 144.919  1.00  0.00    -0.369 N 
ATOM     22  H   UNL     1     -22.126 -11.776 144.763  1.00  0.00     0.159 HD
ATOM     23  H   UNL     1     -23.621 -11.817 145.654  1.00  0.00     0.159 HD
ENDBRANCH   7  19
TORSDOF 1
ENDMDL
MODEL 7
REMARK VINA RESULT:    -8.843      2.518      6.491
REMARK INTER + INTRA:          -9.466
REMARK INTER:                  -9.371
REMARK INTRA:                  -0.095
REMARK UNBOUND:                -0.106
REMARK SMILES CN1C[C@H](C(N)=O)C=C2c3cccc4[nH]cc(c34)C[C@H]21
REMARK SMILES IDX 2 1 15 2 20 3 9 4 19 5 3 6 4 7 17 8 10 9 18 10 8 11 14 12
REMARK SMILES IDX 1 13 16 14 11 15 13 16 12 17 5 19 7 20 6 21
REMARK H PARENT 15 18 6 22 6 23
ROOT
ATOM      1  N   UNL     1     -27.961 -10.166 141.876  1.00  0.00    -0.298 NA
ATOM      2  N   UNL     1     -26.828 -14.050 146.327  1.00  0.00    -0.361 N 
ATOM      3  C   UNL     1     -28.176 -11.160 142.974  1.00  0.00     0.091 C 
ATOM      4  C   UNL     1     -28.941 -10.561 144.199  1.00  0.00    -0.026 C 
ATOM      5  C   UNL     1     -26.802 -11.820 143.377  1.00  0.00     0.061 C 
ATOM      6  C   UNL     1     -29.171  -9.341 141.682  1.00  0.00     0.102 C 
ATOM      7  C   UNL     1     -29.460  -8.484 142.927  1.00  0.00     0.115 C 
ATOM      8  C   UNL     1     -26.947 -12.643 144.611  1.00  0.00    -0.020 A 
ATOM      9  C   UNL     1     -29.016 -11.404 145.414  1.00  0.00    -0.011 A 
ATOM     10  C   UNL     1     -28.007 -12.372 145.503  1.00  0.00     0.010 A 
ATOM     11  C   UNL     1     -29.491  -9.332 144.173  1.00  0.00    -0.007 C 
ATOM     12  C   UNL     1     -27.927 -13.253 146.568  1.00  0.00     0.046 A 
ATOM     13  C   UNL     1     -27.619 -10.826 140.612  1.00  0.00     0.106 C 
ATOM     14  C   UNL     1     -26.225 -13.688 145.140  1.00  0.00     0.087 A 
ATOM     15  C   UNL     1     -29.956 -11.362 146.452  1.00  0.00     0.009 A 
ATOM     16  C   UNL     1     -28.853 -13.220 147.613  1.00  0.00     0.027 A 
ATOM     17  C   UNL     1     -29.870 -12.255 147.529  1.00  0.00     0.003 A 
ATOM     18  H   UNL     1     -26.513 -14.790 146.937  1.00  0.00     0.166 HD
ENDROOT
BRANCH   7  19
ATOM     19  C   UNL     1     -30.793  -7.751 142.755  1.00  0.00     0.225 C 
ATOM     20  O   UNL     1     -31.744  -8.165 142.102  1.00  0.00    -0.275 OA
ATOM     21  N   UNL     1     -30.879  -6.549 143.406  1.00  0.00    -0.369 N 
ATOM     22  H   UNL     1     -31.727  -6.010 143.278  1.00  0.00     0.159 HD
ATOM     23  H   UNL     1     -30.083  -6.109 143.845  1.00  0.00     0.159 HD
ENDBRANCH   7  19
TORSDOF 1
ENDMDL
MODEL 8
REMARK VINA RESULT:    -8.842      4.386      6.102
REMARK INTER + INTRA:          -9.464
REMARK INTER:                  -9.361
REMARK INTRA:                  -0.103
REMARK UNBOUND:                -0.106
REMARK SMILES CN1C[C@H](C(N)=O)C=C2c3cccc4[nH]cc(c34)C[C@H]21
REMARK SMILES IDX 2 1 15 2 20 3 9 4 19 5 3 6 4 7 17 8 10 9 18 10 8 11 14 12
REMARK SMILES IDX 1 13 16 14 11 15 13 16 12 17 5 19 7 20 6 21
REMARK H PARENT 15 18 6 22 6 23
ROOT
ATOM      1  N   UNL     1     -26.885 -16.673 146.597  1.00  0.00    -0.298 NA
ATOM      2  N   UNL     1     -26.692 -10.815 145.246  1.00  0.00    -0.361 N 
ATOM      3  C   UNL     1     -26.552 -15.394 145.893  1.00  0.00     0.091 C 
ATOM      4  C   UNL     1     -25.028 -15.047 145.943  1.00  0.00    -0.026 C 
ATOM      5  C   UNL     1     -27.461 -14.228 146.442  1.00  0.00     0.061 C 
ATOM      6  C   UNL     1     -25.864 -17.701 146.307  1.00  0.00     0.102 C 
ATOM      7  C   UNL     1     -24.493 -17.294 146.873  1.00  0.00     0.115 C 
ATOM      8  C   UNL     1     -27.004 -12.907 145.925  1.00  0.00    -0.020 A 
ATOM      9  C   UNL     1     -24.636 -13.703 145.459  1.00  0.00    -0.011 A 
ATOM     10  C   UNL     1     -25.669 -12.757 145.495  1.00  0.00     0.010 A 
ATOM     11  C   UNL     1     -24.109 -15.908 146.420  1.00  0.00    -0.007 C 
ATOM     12  C   UNL     1     -25.482 -11.452 145.072  1.00  0.00     0.046 A 
ATOM     13  C   UNL     1     -28.203 -17.177 146.203  1.00  0.00     0.106 C 
ATOM     14  C   UNL     1     -27.624 -11.690 145.765  1.00  0.00     0.087 A 
ATOM     15  C   UNL     1     -23.394 -13.278 144.970  1.00  0.00     0.009 A 
ATOM     16  C   UNL     1     -24.249 -11.011 144.588  1.00  0.00     0.027 A 
ATOM     17  C   UNL     1     -23.210 -11.955 144.545  1.00  0.00     0.003 A 
ATOM     18  H   UNL     1     -26.866  -9.845 145.026  1.00  0.00     0.166 HD
ENDROOT
BRANCH   7  19
ATOM     19  C   UNL     1     -23.429 -18.304 146.436  1.00  0.00     0.225 C 
ATOM     20  O   UNL     1     -22.223 -18.177 146.617  1.00  0.00    -0.275 OA
ATOM     21  N   UNL     1     -23.914 -19.418 145.804  1.00  0.00    -0.369 N 
ATOM     22  H   UNL     1     -23.238 -20.087 145.456  1.00  0.00     0.159 HD
ATOM     23  H   UNL     1     -24.879 -19.505 145.519  1.00  0.00     0.159 HD
ENDBRANCH   7  19
TORSDOF 1
ENDMDL
MODEL 9
REMARK VINA RESULT:    -8.807      4.794      7.449
REMARK INTER + INTRA:          -9.428
REMARK INTER:                  -9.321
REMARK INTRA:                  -0.107
REMARK UNBOUND:                -0.106
REMARK SMILES CN1C[C@H](C(N)=O)C=C2c3cccc4[nH]cc(c34)C[C@H]21
REMARK SMILES IDX 2 1 15 2 20 3 9 4 19 5 3 6 4 7 17 8 10 9 18 10 8 11 14 12
REMARK SMILES IDX 1 13 16 14 11 15 13 16 12 17 5 19 7 20 6 21
REMARK H PARENT 15 18 6 22 6 23
ROOT
ATOM      1  N   UNL     1     -26.294 -13.585 145.320  1.00  0.00    -0.298 NA
ATOM      2  N   UNL     1     -30.926 -13.840 149.148  1.00  0.00    -0.361 N 
ATOM      3  C   UNL     1     -27.085 -13.821 146.569  1.00  0.00     0.091 C 
ATOM      4  C   UNL     1     -27.157 -15.330 146.972  1.00  0.00    -0.026 C 
ATOM      5  C   UNL     1     -28.509 -13.157 146.434  1.00  0.00     0.061 C 
ATOM      6  C   UNL     1     -25.082 -14.430 145.311  1.00  0.00     0.102 C 
ATOM      7  C   UNL     1     -25.449 -15.923 145.259  1.00  0.00     0.115 C 
ATOM      8  C   UNL     1     -29.395 -13.563 147.563  1.00  0.00    -0.020 A 
ATOM      9  C   UNL     1     -28.087 -15.683 148.069  1.00  0.00    -0.011 A 
ATOM     10  C   UNL     1     -29.122 -14.758 148.262  1.00  0.00     0.010 A 
ATOM     11  C   UNL     1     -26.432 -16.278 146.347  1.00  0.00    -0.007 C 
ATOM     12  C   UNL     1     -30.079 -14.923 149.249  1.00  0.00     0.046 A 
ATOM     13  C   UNL     1     -25.904 -12.179 145.188  1.00  0.00     0.106 C 
ATOM     14  C   UNL     1     -30.520 -13.007 148.127  1.00  0.00     0.087 A 
ATOM     15  C   UNL     1     -28.052 -16.791 148.924  1.00  0.00     0.009 A 
ATOM     16  C   UNL     1     -30.061 -16.027 150.105  1.00  0.00     0.027 A 
ATOM     17  C   UNL     1     -29.024 -16.955 149.920  1.00  0.00     0.003 A 
ATOM     18  H   UNL     1     -31.730 -13.685 149.740  1.00  0.00     0.166 HD
ENDROOT
BRANCH   7  19
ATOM     19  C   UNL     1     -24.184 -16.775 145.396  1.00  0.00     0.225 C 
ATOM     20  O   UNL     1     -23.885 -17.436 146.384  1.00  0.00    -0.275 OA
ATOM     21  N   UNL     1     -23.362 -16.768 144.300  1.00  0.00    -0.369 N 
ATOM     22  H   UNL     1     -22.491 -17.280 144.368  1.00  0.00     0.159 HD
ATOM     23  H   UNL     1     -23.500 -16.143 143.520  1.00  0.00     0.159 HD
ENDBRANCH   7  19
TORSDOF 1
ENDMDL
MODEL 10
REMARK VINA RESULT:    -8.772      5.054      8.811
REMARK INTER + INTRA:          -9.391
REMARK INTER:                  -9.283
REMARK INTRA:                  -0.108
REMARK UNBOUND:                -0.106
REMARK SMILES CN1C[C@H](C(N)=O)C=C2c3cccc4[nH]cc(c34)C[C@H]21
REMARK SMILES IDX 2 1 15 2 20 3 9 4 19 5 3 6 4 7 17 8 10 9 18 10 8 11 14 12
REMARK SMILES IDX 1 13 16 14 11 15 13 16 12 17 5 19 7 20 6 21
REMARK H PARENT 15 18 6 22 6 23
ROOT
ATOM      1  N   UNL     1     -29.268 -13.607 146.689  1.00  0.00    -0.298 NA
ATOM      2  N   UNL     1     -32.295 -14.406 151.825  1.00  0.00    -0.361 N 
ATOM      3  C   UNL     1     -29.562 -13.917 148.124  1.00  0.00     0.091 C 
ATOM      4  C   UNL     1     -29.281 -15.409 148.498  1.00  0.00    -0.026 C 
ATOM      5  C   UNL     1     -31.031 -13.466 148.480  1.00  0.00     0.061 C 
ATOM      6  C   UNL     1     -28.019 -14.272 146.263  1.00  0.00     0.102 C 
ATOM      7  C   UNL     1     -28.165 -15.802 146.306  1.00  0.00     0.115 C 
ATOM      8  C   UNL     1     -31.428 -13.960 149.829  1.00  0.00    -0.020 A 
ATOM      9  C   UNL     1     -29.738 -15.858 149.833  1.00  0.00    -0.011 A 
ATOM     10  C   UNL     1     -30.772 -15.084 150.374  1.00  0.00     0.010 A 
ATOM     11  C   UNL     1     -28.675 -16.261 147.649  1.00  0.00    -0.007 C 
ATOM     12  C   UNL     1     -31.316 -15.355 151.618  1.00  0.00     0.046 A 
ATOM     13  C   UNL     1     -29.149 -12.164 146.464  1.00  0.00     0.106 C 
ATOM     14  C   UNL     1     -32.372 -13.553 150.744  1.00  0.00     0.087 A 
ATOM     15  C   UNL     1     -29.265 -16.926 150.606  1.00  0.00     0.009 A 
ATOM     16  C   UNL     1     -30.860 -16.420 152.398  1.00  0.00     0.027 A 
ATOM     17  C   UNL     1     -29.820 -17.198 151.864  1.00  0.00     0.003 A 
ATOM     18  H   UNL     1     -32.873 -14.350 152.651  1.00  0.00     0.166 HD
ENDROOT
BRANCH   7  19
ATOM     19  C   UNL     1     -26.818 -16.462 146.000  1.00  0.00     0.225 C 
ATOM     20  O   UNL     1     -25.894 -15.928 145.397  1.00  0.00    -0.275 OA
ATOM     21  N   UNL     1     -26.684 -17.744 146.463  1.00  0.00    -0.369 N 
ATOM     22  H   UNL     1     -25.826 -18.233 146.240  1.00  0.00     0.159 HD
ATOM     23  H   UNL     1     -27.458 -18.267 146.849  1.00  0.00     0.159 HD
ENDBRANCH   7  19
TORSDOF 1
ENDMDL
MODEL 11
REMARK VINA RESULT:    -8.750      2.578      5.365
REMARK INTER + INTRA:          -9.367
REMARK INTER:                  -9.250
REMARK INTRA:                  -0.116
REMARK UNBOUND:                -0.106
REMARK SMILES CN1C[C@H](C(N)=O)C=C2c3cccc4[nH]cc(c34)C[C@H]21
REMARK SMILES IDX 2 1 15 2 20 3 9 4 19 5 3 6 4 7 17 8 10 9 18 10 8 11 14 12
REMARK SMILES IDX 1 13 16 14 11 15 13 16 12 17 5 19 7 20 6 21
REMARK H PARENT 15 18 6 22 6 23
ROOT
ATOM      1  N   UNL     1     -29.989  -8.312 142.602  1.00  0.00    -0.298 NA
ATOM      2  N   UNL     1     -28.953 -12.165 147.102  1.00  0.00    -0.361 N 
ATOM      3  C   UNL     1     -29.262  -9.169 143.589  1.00  0.00     0.091 C 
ATOM      4  C   UNL     1     -28.450 -10.324 142.916  1.00  0.00    -0.026 C 
ATOM      5  C   UNL     1     -30.266  -9.691 144.689  1.00  0.00     0.061 C 
ATOM      6  C   UNL     1     -29.140  -8.051 141.421  1.00  0.00     0.102 C 
ATOM      7  C   UNL     1     -28.842  -9.352 140.657  1.00  0.00     0.115 C 
ATOM      8  C   UNL     1     -29.623 -10.721 145.552  1.00  0.00    -0.020 A 
ATOM      9  C   UNL     1     -27.871 -11.345 143.819  1.00  0.00    -0.011 A 
ATOM     10  C   UNL     1     -28.516 -11.444 145.059  1.00  0.00     0.010 A 
ATOM     11  C   UNL     1     -28.295 -10.411 141.581  1.00  0.00    -0.007 C 
ATOM     12  C   UNL     1     -28.103 -12.341 146.030  1.00  0.00     0.046 A 
ATOM     13  C   UNL     1     -30.397  -7.035 143.195  1.00  0.00     0.106 C 
ATOM     14  C   UNL     1     -29.880 -11.183 146.822  1.00  0.00     0.087 A 
ATOM     15  C   UNL     1     -26.779 -12.192 143.596  1.00  0.00     0.009 A 
ATOM     16  C   UNL     1     -27.019 -13.196 145.820  1.00  0.00     0.027 A 
ATOM     17  C   UNL     1     -26.366 -13.099 144.581  1.00  0.00     0.003 A 
ATOM     18  H   UNL     1     -28.900 -12.686 147.965  1.00  0.00     0.166 HD
ENDROOT
BRANCH   7  19
ATOM     19  C   UNL     1     -27.847  -9.075 139.527  1.00  0.00     0.225 C 
ATOM     20  O   UNL     1     -27.961  -8.185 138.692  1.00  0.00    -0.275 OA
ATOM     21  N   UNL     1     -26.761  -9.910 139.495  1.00  0.00    -0.369 N 
ATOM     22  H   UNL     1     -26.104  -9.791 138.734  1.00  0.00     0.159 HD
ATOM     23  H   UNL     1     -26.689 -10.732 140.078  1.00  0.00     0.159 HD
ENDBRANCH   7  19
TORSDOF 1
ENDMDL
MODEL 12
REMARK VINA RESULT:    -8.745      3.670      6.104
REMARK INTER + INTRA:          -9.362
REMARK INTER:                  -9.255
REMARK INTRA:                  -0.107
REMARK UNBOUND:                -0.106
REMARK SMILES CN1C[C@H](C(N)=O)C=C2c3cccc4[nH]cc(c34)C[C@H]21
REMARK SMILES IDX 2 1 15 2 20 3 9 4 19 5 3 6 4 7 17 8 10 9 18 10 8 11 14 12
REMARK SMILES IDX 1 13 16 14 11 15 13 16 12 17 5 19 7 20 6 21
REMARK H PARENT 15 18 6 22 6 23
ROOT
ATOM      1  N   UNL     1     -26.313 -16.027 147.062  1.00  0.00    -0.298 NA
ATOM      2  N   UNL     1     -27.252 -11.117 143.718  1.00  0.00    -0.361 N 
ATOM      3  C   UNL     1     -26.664 -14.624 146.679  1.00  0.00     0.091 C 
ATOM      4  C   UNL     1     -28.168 -14.278 146.932  1.00  0.00    -0.026 C 
ATOM      5  C   UNL     1     -26.217 -14.346 145.192  1.00  0.00     0.061 C 
ATOM      6  C   UNL     1     -26.970 -16.394 148.334  1.00  0.00     0.102 C 
ATOM      7  C   UNL     1     -28.500 -16.407 148.181  1.00  0.00     0.115 C 
ATOM      8  C   UNL     1     -26.750 -13.040 144.709  1.00  0.00    -0.020 A 
ATOM      9  C   UNL     1     -28.655 -12.988 146.391  1.00  0.00    -0.011 A 
ATOM     10  C   UNL     1     -27.893 -12.489 145.327  1.00  0.00     0.010 A 
ATOM     11  C   UNL     1     -28.997 -15.113 147.588  1.00  0.00    -0.007 C 
ATOM     12  C   UNL     1     -28.199 -11.290 144.706  1.00  0.00     0.046 A 
ATOM     13  C   UNL     1     -24.864 -16.201 147.199  1.00  0.00     0.106 C 
ATOM     14  C   UNL     1     -26.367 -12.174 143.712  1.00  0.00     0.087 A 
ATOM     15  C   UNL     1     -29.748 -12.220 146.812  1.00  0.00     0.009 A 
ATOM     16  C   UNL     1     -29.289 -10.516 145.109  1.00  0.00     0.027 A 
ATOM     17  C   UNL     1     -30.055 -11.008 146.179  1.00  0.00     0.003 A 
ATOM     18  H   UNL     1     -27.218 -10.327 143.090  1.00  0.00     0.166 HD
ENDROOT
BRANCH   7  19
ATOM     19  C   UNL     1     -29.157 -16.648 149.543  1.00  0.00     0.225 C 
ATOM     20  O   UNL     1     -29.800 -15.814 150.171  1.00  0.00    -0.275 OA
ATOM     21  N   UNL     1     -28.988 -17.908 150.051  1.00  0.00    -0.369 N 
ATOM     22  H   UNL     1     -29.366 -18.094 150.972  1.00  0.00     0.159 HD
ATOM     23  H   UNL     1     -28.363 -18.584 149.635  1.00  0.00     0.159 HD
ENDBRANCH   7  19
TORSDOF 1
ENDMDL
MODEL 13
REMARK VINA RESULT:    -8.711      1.674      3.597
REMARK INTER + INTRA:          -9.326
REMARK INTER:                  -9.221
REMARK INTRA:                  -0.104
REMARK UNBOUND:                -0.106
REMARK SMILES CN1C[C@H](C(N)=O)C=C2c3cccc4[nH]cc(c34)C[C@H]21
REMARK SMILES IDX 2 1 15 2 20 3 9 4 19 5 3 6 4 7 17 8 10 9 18 10 8 11 14 12
REMARK SMILES IDX 1 13 16 14 11 15 13 16 12 17 5 19 7 20 6 21
REMARK H PARENT 15 18 6 22 6 23
ROOT
ATOM      1  N   UNL     1     -27.220 -12.690 144.041  1.00  0.00    -0.298 NA
ATOM      2  N   UNL     1     -28.284  -8.662 139.704  1.00  0.00    -0.361 N 
ATOM      3  C   UNL     1     -27.460 -11.382 143.354  1.00  0.00     0.091 C 
ATOM      4  C   UNL     1     -28.790 -10.692 143.801  1.00  0.00    -0.026 C 
ATOM      5  C   UNL     1     -27.366 -11.572 141.791  1.00  0.00     0.061 C 
ATOM      6  C   UNL     1     -27.581 -12.596 145.471  1.00  0.00     0.102 C 
ATOM      7  C   UNL     1     -29.087 -12.339 145.644  1.00  0.00     0.115 C 
ATOM      8  C   UNL     1     -27.818 -10.345 141.077  1.00  0.00    -0.020 A 
ATOM      9  C   UNL     1     -29.215  -9.503 143.027  1.00  0.00    -0.011 A 
ATOM     10  C   UNL     1     -28.683  -9.442 141.732  1.00  0.00     0.010 A 
ATOM     11  C   UNL     1     -29.535 -11.157 144.822  1.00  0.00    -0.007 C 
ATOM     12  C   UNL     1     -28.967  -8.395 140.871  1.00  0.00     0.046 A 
ATOM     13  C   UNL     1     -25.821 -13.112 143.923  1.00  0.00     0.106 C 
ATOM     14  C   UNL     1     -27.583  -9.844 139.818  1.00  0.00     0.087 A 
ATOM     15  C   UNL     1     -30.051  -8.453 143.425  1.00  0.00     0.009 A 
ATOM     16  C   UNL     1     -29.804  -7.344 141.252  1.00  0.00     0.027 A 
ATOM     17  C   UNL     1     -30.337  -7.396 142.550  1.00  0.00     0.003 A 
ATOM     18  H   UNL     1     -28.300  -8.072 138.884  1.00  0.00     0.166 HD
ENDROOT
BRANCH   7  19
ATOM     19  C   UNL     1     -29.408 -12.103 147.122  1.00  0.00     0.225 C 
ATOM     20  O   UNL     1     -28.655 -12.362 148.055  1.00  0.00    -0.275 OA
ATOM     21  N   UNL     1     -30.639 -11.554 147.367  1.00  0.00    -0.369 N 
ATOM     22  H   UNL     1     -30.909 -11.427 148.334  1.00  0.00     0.159 HD
ATOM     23  H   UNL     1     -31.339 -11.445 146.646  1.00  0.00     0.159 HD
ENDBRANCH   7  19
TORSDOF 1
ENDMDL
MODEL 14
REMARK VINA RESULT:    -8.683      3.183      6.832
REMARK INTER + INTRA:          -9.296
REMARK INTER:                  -9.191
REMARK INTRA:                  -0.105
REMARK UNBOUND:                -0.106
REMARK SMILES CN1C[C@H](C(N)=O)C=C2c3cccc4[nH]cc(c34)C[C@H]21
REMARK SMILES IDX 2 1 15 2 20 3 9 4 19 5 3 6 4 7 17 8 10 9 18 10 8 11 14 12
REMARK SMILES IDX 1 13 16 14 11 15 13 16 12 17 5 19 7 20 6 21
REMARK H PARENT 15 18 6 22 6 23
ROOT
ATOM      1  N   UNL     1     -29.557 -12.530 146.373  1.00  0.00    -0.298 NA
ATOM      2  N   UNL     1     -26.479 -17.697 146.442  1.00  0.00    -0.361 N 
ATOM      3  C   UNL     1     -28.420 -13.497 146.482  1.00  0.00     0.091 C 
ATOM      4  C   UNL     1     -27.350 -13.312 145.357  1.00  0.00    -0.026 C 
ATOM      5  C   UNL     1     -28.975 -14.971 146.559  1.00  0.00     0.061 C 
ATOM      6  C   UNL     1     -29.059 -11.186 146.016  1.00  0.00     0.102 C 
ATOM      7  C   UNL     1     -28.419 -11.188 144.618  1.00  0.00     0.115 C 
ATOM      8  C   UNL     1     -27.869 -15.964 146.443  1.00  0.00    -0.020 A 
ATOM      9  C   UNL     1     -26.300 -14.353 145.259  1.00  0.00    -0.011 A 
ATOM     10  C   UNL     1     -26.662 -15.585 145.817  1.00  0.00     0.010 A 
ATOM     11  C   UNL     1     -27.381 -12.276 144.497  1.00  0.00    -0.007 C 
ATOM     12  C   UNL     1     -25.801 -16.669 145.821  1.00  0.00     0.046 A 
ATOM     13  C   UNL     1     -30.315 -12.448 147.625  1.00  0.00     0.106 C 
ATOM     14  C   UNL     1     -27.737 -17.279 146.824  1.00  0.00     0.087 A 
ATOM     15  C   UNL     1     -25.019 -14.253 144.702  1.00  0.00     0.009 A 
ATOM     16  C   UNL     1     -24.522 -16.587 145.265  1.00  0.00     0.027 A 
ATOM     17  C   UNL     1     -24.151 -15.353 144.708  1.00  0.00     0.003 A 
ATOM     18  H   UNL     1     -26.104 -18.623 146.591  1.00  0.00     0.166 HD
ENDROOT
BRANCH   7  19
ATOM     19  C   UNL     1     -27.785  -9.823 144.334  1.00  0.00     0.225 C 
ATOM     20  O   UNL     1     -26.675  -9.470 144.717  1.00  0.00    -0.275 OA
ATOM     21  N   UNL     1     -28.555  -8.972 143.586  1.00  0.00    -0.369 N 
ATOM     22  H   UNL     1     -28.193  -8.043 143.417  1.00  0.00     0.159 HD
ATOM     23  H   UNL     1     -29.520  -9.169 143.359  1.00  0.00     0.159 HD
ENDBRANCH   7  19
TORSDOF 1
ENDMDL
MODEL 15
REMARK VINA RESULT:    -8.677      4.984      7.232
REMARK INTER + INTRA:          -9.289
REMARK INTER:                  -9.172
REMARK INTRA:                  -0.117
REMARK UNBOUND:                -0.106
REMARK SMILES CN1C[C@H](C(N)=O)C=C2c3cccc4[nH]cc(c34)C[C@H]21
REMARK SMILES IDX 2 1 15 2 20 3 9 4 19 5 3 6 4 7 17 8 10 9 18 10 8 11 14 12
REMARK SMILES IDX 1 13 16 14 11 15 13 16 12 17 5 19 7 20 6 21
REMARK H PARENT 15 18 6 22 6 23
ROOT
ATOM      1  N   UNL     1     -28.562 -16.024 147.946  1.00  0.00    -0.298 NA
ATOM      2  N   UNL     1     -23.614 -16.098 144.528  1.00  0.00    -0.361 N 
ATOM      3  C   UNL     1     -27.269 -15.603 147.321  1.00  0.00     0.091 C 
ATOM      4  C   UNL     1     -27.407 -14.324 146.433  1.00  0.00    -0.026 C 
ATOM      5  C   UNL     1     -26.627 -16.817 146.546  1.00  0.00     0.061 C 
ATOM      6  C   UNL     1     -29.310 -14.844 148.428  1.00  0.00     0.102 C 
ATOM      7  C   UNL     1     -29.724 -13.937 147.258  1.00  0.00     0.115 C 
ATOM      8  C   UNL     1     -25.460 -16.374 145.732  1.00  0.00    -0.020 A 
ATOM      9  C   UNL     1     -26.231 -13.955 145.610  1.00  0.00    -0.011 A 
ATOM     10  C   UNL     1     -25.365 -15.022 145.339  1.00  0.00     0.010 A 
ATOM     11  C   UNL     1     -28.539 -13.595 146.390  1.00  0.00    -0.007 C 
ATOM     12  C   UNL     1     -24.211 -14.857 144.591  1.00  0.00     0.046 A 
ATOM     13  C   UNL     1     -28.345 -16.948 149.063  1.00  0.00     0.106 C 
ATOM     14  C   UNL     1     -24.364 -17.027 145.218  1.00  0.00     0.087 A 
ATOM     15  C   UNL     1     -25.883 -12.700 145.094  1.00  0.00     0.009 A 
ATOM     16  C   UNL     1     -23.854 -13.614 144.065  1.00  0.00     0.027 A 
ATOM     17  C   UNL     1     -24.716 -12.539 144.336  1.00  0.00     0.003 A 
ATOM     18  H   UNL     1     -22.750 -16.294 144.042  1.00  0.00     0.166 HD
ENDROOT
BRANCH   7  19
ATOM     19  C   UNL     1     -30.368 -12.656 147.795  1.00  0.00     0.225 C 
ATOM     20  O   UNL     1     -31.310 -12.618 148.579  1.00  0.00    -0.275 OA
ATOM     21  N   UNL     1     -29.808 -11.492 147.340  1.00  0.00    -0.369 N 
ATOM     22  H   UNL     1     -30.236 -10.623 147.634  1.00  0.00     0.159 HD
ATOM     23  H   UNL     1     -29.121 -11.471 146.600  1.00  0.00     0.159 HD
ENDBRANCH   7  19
TORSDOF 1
ENDMDL
MODEL 16
REMARK VINA RESULT:    -8.643      5.155      7.498
REMARK INTER + INTRA:          -9.254
REMARK INTER:                  -9.136
REMARK INTRA:                  -0.118
REMARK UNBOUND:                -0.106
REMARK SMILES CN1C[C@H](C(N)=O)C=C2c3cccc4[nH]cc(c34)C[C@H]21
REMARK SMILES IDX 2 1 15 2 20 3 9 4 19 5 3 6 4 7 17 8 10 9 18 10 8 11 14 12
REMARK SMILES IDX 1 13 16 14 11 15 13 16 12 17 5 19 7 20 6 21
REMARK H PARENT 15 18 6 22 6 23
ROOT
ATOM      1  N   UNL     1     -28.813 -13.659 147.321  1.00  0.00    -0.298 NA
ATOM      2  N   UNL     1     -23.879 -14.411 143.964  1.00  0.00    -0.361 N 
ATOM      3  C   UNL     1     -27.797 -14.293 146.422  1.00  0.00     0.091 C 
ATOM      4  C   UNL     1     -27.080 -15.518 147.077  1.00  0.00    -0.026 C 
ATOM      5  C   UNL     1     -26.785 -13.200 145.904  1.00  0.00     0.061 C 
ATOM      6  C   UNL     1     -29.586 -14.696 148.036  1.00  0.00     0.102 C 
ATOM      7  C   UNL     1     -28.683 -15.505 148.982  1.00  0.00     0.115 C 
ATOM      8  C   UNL     1     -25.638 -13.831 145.191  1.00  0.00    -0.020 A 
ATOM      9  C   UNL     1     -25.918 -16.077 146.348  1.00  0.00    -0.011 A 
ATOM     10  C   UNL     1     -25.307 -15.175 145.468  1.00  0.00     0.010 A 
ATOM     11  C   UNL     1     -27.474 -16.037 148.255  1.00  0.00    -0.007 C 
ATOM     12  C   UNL     1     -24.211 -15.529 144.699  1.00  0.00     0.046 A 
ATOM     13  C   UNL     1     -29.734 -12.800 146.572  1.00  0.00     0.106 C 
ATOM     14  C   UNL     1     -24.739 -13.373 144.256  1.00  0.00     0.087 A 
ATOM     15  C   UNL     1     -25.379 -17.367 146.419  1.00  0.00     0.009 A 
ATOM     16  C   UNL     1     -23.658 -16.810 144.763  1.00  0.00     0.027 A 
ATOM     17  C   UNL     1     -24.269 -17.721 145.640  1.00  0.00     0.003 A 
ATOM     18  H   UNL     1     -23.113 -14.363 143.308  1.00  0.00     0.166 HD
ENDROOT
BRANCH   7  19
ATOM     19  C   UNL     1     -29.478 -16.659 149.599  1.00  0.00     0.225 C 
ATOM     20  O   UNL     1     -30.470 -16.531 150.307  1.00  0.00    -0.275 OA
ATOM     21  N   UNL     1     -29.006 -17.910 149.300  1.00  0.00    -0.369 N 
ATOM     22  H   UNL     1     -29.474 -18.699 149.728  1.00  0.00     0.159 HD
ATOM     23  H   UNL     1     -28.123 -18.061 148.832  1.00  0.00     0.159 HD
ENDBRANCH   7  19
TORSDOF 1
ENDMDL
MODEL 17
REMARK VINA RESULT:    -8.559      5.352      7.596
REMARK INTER + INTRA:          -9.165
REMARK INTER:                  -9.042
REMARK INTRA:                  -0.122
REMARK UNBOUND:                -0.106
REMARK SMILES CN1C[C@H](C(N)=O)C=C2c3cccc4[nH]cc(c34)C[C@H]21
REMARK SMILES IDX 2 1 15 2 20 3 9 4 19 5 3 6 4 7 17 8 10 9 18 10 8 11 14 12
REMARK SMILES IDX 1 13 16 14 11 15 13 16 12 17 5 19 7 20 6 21
REMARK H PARENT 15 18 6 22 6 23
ROOT
ATOM      1  N   UNL     1     -24.608 -16.875 146.391  1.00  0.00    -0.298 NA
ATOM      2  N   UNL     1     -29.660 -15.777 149.463  1.00  0.00    -0.361 N 
ATOM      3  C   UNL     1     -26.017 -16.477 146.698  1.00  0.00     0.091 C 
ATOM      4  C   UNL     1     -26.297 -14.962 146.433  1.00  0.00    -0.026 C 
ATOM      5  C   UNL     1     -26.391 -16.918 148.165  1.00  0.00     0.061 C 
ATOM      6  C   UNL     1     -24.149 -16.228 145.144  1.00  0.00     0.102 C 
ATOM      7  C   UNL     1     -24.093 -14.699 145.304  1.00  0.00     0.115 C 
ATOM      8  C   UNL     1     -27.703 -16.342 148.577  1.00  0.00    -0.020 A 
ATOM      9  C   UNL     1     -27.597 -14.432 146.904  1.00  0.00    -0.011 A 
ATOM     10  C   UNL     1     -28.180 -15.179 147.935  1.00  0.00     0.010 A 
ATOM     11  C   UNL     1     -25.400 -14.160 145.827  1.00  0.00    -0.007 C 
ATOM     12  C   UNL     1     -29.400 -14.834 148.491  1.00  0.00     0.046 A 
ATOM     13  C   UNL     1     -24.476 -18.329 146.257  1.00  0.00     0.106 C 
ATOM     14  C   UNL     1     -28.635 -16.698 149.524  1.00  0.00     0.087 A 
ATOM     15  C   UNL     1     -28.303 -13.313 146.446  1.00  0.00     0.009 A 
ATOM     16  C   UNL     1     -30.113 -13.718 148.051  1.00  0.00     0.027 A 
ATOM     17  C   UNL     1     -29.537 -12.966 147.014  1.00  0.00     0.003 A 
ATOM     18  H   UNL     1     -30.484 -15.786 150.047  1.00  0.00     0.166 HD
ENDROOT
BRANCH   7  19
ATOM     19  C   UNL     1     -23.755 -14.048 143.960  1.00  0.00     0.225 C 
ATOM     20  O   UNL     1     -22.622 -13.786 143.571  1.00  0.00    -0.275 OA
ATOM     21  N   UNL     1     -24.835 -13.761 143.169  1.00  0.00    -0.369 N 
ATOM     22  H   UNL     1     -24.658 -13.286 142.293  1.00  0.00     0.159 HD
ATOM     23  H   UNL     1     -25.787 -13.839 143.498  1.00  0.00     0.159 HD
ENDBRANCH   7  19
TORSDOF 1
ENDMDL
MODEL 18
REMARK VINA RESULT:    -8.500      3.643      7.974
REMARK INTER + INTRA:          -9.102
REMARK INTER:                  -8.997
REMARK INTRA:                  -0.105
REMARK UNBOUND:                -0.106
REMARK SMILES CN1C[C@H](C(N)=O)C=C2c3cccc4[nH]cc(c34)C[C@H]21
REMARK SMILES IDX 2 1 15 2 20 3 9 4 19 5 3 6 4 7 17 8 10 9 18 10 8 11 14 12
REMARK SMILES IDX 1 13 16 14 11 15 13 16 12 17 5 19 7 20 6 21
REMARK H PARENT 15 18 6 22 6 23
ROOT
ATOM      1  N   UNL     1     -25.679 -13.171 144.598  1.00  0.00    -0.298 NA
ATOM      2  N   UNL     1     -26.111 -17.270 148.978  1.00  0.00    -0.361 N 
ATOM      3  C   UNL     1     -26.237 -14.243 145.481  1.00  0.00     0.091 C 
ATOM      4  C   UNL     1     -27.465 -13.766 146.323  1.00  0.00    -0.026 C 
ATOM      5  C   UNL     1     -25.088 -14.855 146.372  1.00  0.00     0.061 C 
ATOM      6  C   UNL     1     -26.773 -12.398 143.972  1.00  0.00     0.102 C 
ATOM      7  C   UNL     1     -27.591 -11.641 145.031  1.00  0.00     0.115 C 
ATOM      8  C   UNL     1     -25.647 -15.763 147.413  1.00  0.00    -0.020 A 
ATOM      9  C   UNL     1     -27.950 -14.689 147.375  1.00  0.00    -0.011 A 
ATOM     10  C   UNL     1     -26.989 -15.606 147.820  1.00  0.00     0.010 A 
ATOM     11  C   UNL     1     -28.049 -12.568 146.129  1.00  0.00    -0.007 C 
ATOM     12  C   UNL     1     -27.271 -16.549 148.793  1.00  0.00     0.046 A 
ATOM     13  C   UNL     1     -24.820 -13.729 143.550  1.00  0.00     0.106 C 
ATOM     14  C   UNL     1     -25.117 -16.801 148.145  1.00  0.00     0.087 A 
ATOM     15  C   UNL     1     -29.223 -14.763 147.954  1.00  0.00     0.009 A 
ATOM     16  C   UNL     1     -28.534 -16.632 149.385  1.00  0.00     0.027 A 
ATOM     17  C   UNL     1     -29.503 -15.719 148.941  1.00  0.00     0.003 A 
ATOM     18  H   UNL     1     -26.007 -18.031 149.634  1.00  0.00     0.166 HD
ENDROOT
BRANCH   7  19
ATOM     19  C   UNL     1     -28.799 -10.969 144.372  1.00  0.00     0.225 C 
ATOM     20  O   UNL     1     -29.922 -10.908 144.859  1.00  0.00    -0.275 OA
ATOM     21  N   UNL     1     -28.550 -10.401 143.150  1.00  0.00    -0.369 N 
ATOM     22  H   UNL     1     -29.333  -9.989 142.660  1.00  0.00     0.159 HD
ATOM     23  H   UNL     1     -27.680 -10.537 142.655  1.00  0.00     0.159 HD
ENDBRANCH   7  19
TORSDOF 1
ENDMDL
MODEL 19
REMARK VINA RESULT:    -8.490      3.238      6.879
REMARK INTER + INTRA:          -9.092
REMARK INTER:                  -8.986
REMARK INTRA:                  -0.105
REMARK UNBOUND:                -0.106
REMARK SMILES CN1C[C@H](C(N)=O)C=C2c3cccc4[nH]cc(c34)C[C@H]21
REMARK SMILES IDX 2 1 15 2 20 3 9 4 19 5 3 6 4 7 17 8 10 9 18 10 8 11 14 12
REMARK SMILES IDX 1 13 16 14 11 15 13 16 12 17 5 19 7 20 6 21
REMARK H PARENT 15 18 6 22 6 23
ROOT
ATOM      1  N   UNL     1     -28.164 -11.169 145.552  1.00  0.00    -0.298 NA
ATOM      2  N   UNL     1     -23.579 -14.784 144.111  1.00  0.00    -0.361 N 
ATOM      3  C   UNL     1     -27.400 -12.393 145.157  1.00  0.00     0.091 C 
ATOM      4  C   UNL     1     -27.464 -13.528 146.230  1.00  0.00    -0.026 C 
ATOM      5  C   UNL     1     -25.921 -12.000 144.772  1.00  0.00     0.061 C 
ATOM      6  C   UNL     1     -29.448 -11.544 146.181  1.00  0.00     0.102 C 
ATOM      7  C   UNL     1     -29.216 -12.297 147.502  1.00  0.00     0.115 C 
ATOM      8  C   UNL     1     -25.076 -13.215 144.591  1.00  0.00    -0.020 A 
ATOM      9  C   UNL     1     -26.570 -14.691 146.024  1.00  0.00    -0.011 A 
ATOM     10  C   UNL     1     -25.457 -14.421 145.218  1.00  0.00     0.010 A 
ATOM     11  C   UNL     1     -28.270 -13.456 147.307  1.00  0.00    -0.007 C 
ATOM     12  C   UNL     1     -24.520 -15.394 144.912  1.00  0.00     0.046 A 
ATOM     13  C   UNL     1     -28.427 -10.302 144.399  1.00  0.00     0.106 C 
ATOM     14  C   UNL     1     -23.907 -13.459 143.909  1.00  0.00     0.087 A 
ATOM     15  C   UNL     1     -26.705 -15.996 146.513  1.00  0.00     0.009 A 
ATOM     16  C   UNL     1     -24.638 -16.698 145.397  1.00  0.00     0.027 A 
ATOM     17  C   UNL     1     -25.753 -16.977 146.203  1.00  0.00     0.003 A 
ATOM     18  H   UNL     1     -22.765 -15.245 143.730  1.00  0.00     0.166 HD
ENDROOT
BRANCH   7  19
ATOM     19  C   UNL     1     -30.552 -12.798 148.057  1.00  0.00     0.225 C 
ATOM     20  O   UNL     1     -30.740 -13.908 148.543  1.00  0.00    -0.275 OA
ATOM     21  N   UNL     1     -31.581 -11.896 147.987  1.00  0.00    -0.369 N 
ATOM     22  H   UNL     1     -32.493 -12.205 148.300  1.00  0.00     0.159 HD
ATOM     23  H   UNL     1     -31.507 -11.024 147.483  1.00  0.00     0.159 HD
ENDBRANCH   7  19
TORSDOF 1
ENDMDL
