MODEL 1
REMARK VINA RESULT:    -9.125      0.000      0.000
REMARK INTER + INTRA:          -9.754
REMARK INTER:                  -9.659
REMARK INTRA:                  -0.095
REMARK UNBOUND:                -0.095
REMARK SMILES CN1C[C@H](C(N)=O)C=C2c3cccc4[nH]cc(c34)C[C@H]21
REMARK SMILES IDX 2 1 15 2 20 3 9 4 19 5 3 6 4 7 17 8 10 9 18 10 8 11 14 12
REMARK SMILES IDX 1 13 16 14 11 15 13 16 12 17 5 19 7 20 6 21
REMARK H PARENT 15 18 6 22 6 23
ROOT
ATOM      1  N   UNL     1     101.646 117.871  81.137  1.00  0.00    -0.298 NA
ATOM      2  N   UNL     1      98.074 122.662  81.811  1.00  0.00    -0.361 N 
ATOM      3  C   UNL     1     100.626 118.926  80.844  1.00  0.00     0.091 C 
ATOM      4  C   UNL     1     101.046 119.876  79.675  1.00  0.00    -0.026 C 
ATOM      5  C   UNL     1     100.269 119.708  82.167  1.00  0.00     0.061 C 
ATOM      6  C   UNL     1     102.199 117.325  79.880  1.00  0.00     0.102 C 
ATOM      7  C   UNL     1     102.971 118.404  79.102  1.00  0.00     0.115 C 
ATOM      8  C   UNL     1      99.429 120.904  81.869  1.00  0.00    -0.020 A 
ATOM      9  C   UNL     1     100.202 121.073  79.453  1.00  0.00    -0.011 A 
ATOM     10  C   UNL     1      99.468 121.472  80.578  1.00  0.00     0.010 A 
ATOM     11  C   UNL     1     102.132 119.643  78.913  1.00  0.00    -0.007 C 
ATOM     12  C   UNL     1      98.620 122.566  80.549  1.00  0.00     0.046 A 
ATOM     13  C   UNL     1     101.077 116.777  81.929  1.00  0.00     0.106 C 
ATOM     14  C   UNL     1      98.559 121.657  82.622  1.00  0.00     0.087 A 
ATOM     15  C   UNL     1     100.041 121.825  78.284  1.00  0.00     0.009 A 
ATOM     16  C   UNL     1      98.454 123.331  79.392  1.00  0.00     0.027 A 
ATOM     17  C   UNL     1      99.183 122.933  78.260  1.00  0.00     0.003 A 
ATOM     18  H   UNL     1      97.414 123.372  82.097  1.00  0.00     0.166 HD
ENDROOT
BRANCH   7  19
ATOM     19  C   UNL     1     103.408 117.853  77.742  1.00  0.00     0.225 C 
ATOM     20  O   UNL     1     102.882 116.907  77.166  1.00  0.00    -0.275 OA
ATOM     21  N   UNL     1     104.465 118.505  77.166  1.00  0.00    -0.369 N 
ATOM     22  H   UNL     1     104.815 118.141  76.289  1.00  0.00     0.159 HD
ATOM     23  H   UNL     1     105.009 119.201  77.657  1.00  0.00     0.159 HD
ENDBRANCH   7  19
TORSDOF 1
ENDMDL
MODEL 2
REMARK VINA RESULT:    -9.096      1.364      1.449
REMARK INTER + INTRA:          -9.723
REMARK INTER:                  -9.604
REMARK INTRA:                  -0.119
REMARK UNBOUND:                -0.095
REMARK SMILES CN1C[C@H](C(N)=O)C=C2c3cccc4[nH]cc(c34)C[C@H]21
REMARK SMILES IDX 2 1 15 2 20 3 9 4 19 5 3 6 4 7 17 8 10 9 18 10 8 11 14 12
REMARK SMILES IDX 1 13 16 14 11 15 13 16 12 17 5 19 7 20 6 21
REMARK H PARENT 15 18 6 22 6 23
ROOT
ATOM      1  N   UNL     1     101.306 116.749  81.406  1.00  0.00    -0.298 NA
ATOM      2  N   UNL     1      98.873 122.208  82.079  1.00  0.00    -0.361 N 
ATOM      3  C   UNL     1     100.486 117.973  81.145  1.00  0.00     0.091 C 
ATOM      4  C   UNL     1     100.929 118.744  79.859  1.00  0.00    -0.026 C 
ATOM      5  C   UNL     1     100.467 118.890  82.428  1.00  0.00     0.061 C 
ATOM      6  C   UNL     1     101.570 116.026  80.145  1.00  0.00     0.102 C 
ATOM      7  C   UNL     1     102.433 116.873  79.194  1.00  0.00     0.115 C 
ATOM      8  C   UNL     1      99.849 120.213  82.129  1.00  0.00    -0.020 A 
ATOM      9  C   UNL     1     100.317 120.074  79.635  1.00  0.00    -0.011 A 
ATOM     10  C   UNL     1      99.831 120.684  80.799  1.00  0.00     0.010 A 
ATOM     11  C   UNL     1     101.838 118.246  78.999  1.00  0.00    -0.007 C 
ATOM     12  C   UNL     1      99.220 121.926  80.775  1.00  0.00     0.046 A 
ATOM     13  C   UNL     1     100.640 115.846  82.350  1.00  0.00     0.106 C 
ATOM     14  C   UNL     1      99.251 121.175  82.911  1.00  0.00     0.087 A 
ATOM     15  C   UNL     1     100.158 120.772  78.432  1.00  0.00     0.009 A 
ATOM     16  C   UNL     1      99.059 122.637  79.585  1.00  0.00     0.027 A 
ATOM     17  C   UNL     1      99.540 122.031  78.413  1.00  0.00     0.003 A 
ATOM     18  H   UNL     1      98.411 123.055  82.378  1.00  0.00     0.166 HD
ENDROOT
BRANCH   7  19
ATOM     19  C   UNL     1     102.570 116.163  77.844  1.00  0.00     0.225 C 
ATOM     20  O   UNL     1     103.625 115.763  77.364  1.00  0.00    -0.275 OA
ATOM     21  N   UNL     1     101.394 115.979  77.166  1.00  0.00    -0.369 N 
ATOM     22  H   UNL     1     101.448 115.557  76.247  1.00  0.00     0.159 HD
ATOM     23  H   UNL     1     100.525 116.403  77.458  1.00  0.00     0.159 HD
ENDBRANCH   7  19
TORSDOF 1
ENDMDL
MODEL 3
REMARK VINA RESULT:    -8.865      2.015      3.841
REMARK INTER + INTRA:          -9.478
REMARK INTER:                  -9.364
REMARK INTRA:                  -0.114
REMARK UNBOUND:                -0.095
REMARK SMILES CN1C[C@H](C(N)=O)C=C2c3cccc4[nH]cc(c34)C[C@H]21
REMARK SMILES IDX 2 1 15 2 20 3 9 4 19 5 3 6 4 7 17 8 10 9 18 10 8 11 14 12
REMARK SMILES IDX 1 13 16 14 11 15 13 16 12 17 5 19 7 20 6 21
REMARK H PARENT 15 18 6 22 6 23
ROOT
ATOM      1  N   UNL     1     101.902 117.121  78.899  1.00  0.00    -0.298 NA
ATOM      2  N   UNL     1      99.430 122.594  78.575  1.00  0.00    -0.361 N 
ATOM      3  C   UNL     1     101.506 118.517  79.264  1.00  0.00     0.091 C 
ATOM      4  C   UNL     1     100.568 118.581  80.513  1.00  0.00    -0.026 C 
ATOM      5  C   UNL     1     100.897 119.248  78.006  1.00  0.00     0.061 C 
ATOM      6  C   UNL     1     102.205 116.336  80.114  1.00  0.00     0.102 C 
ATOM      7  C   UNL     1     100.951 116.167  80.989  1.00  0.00     0.115 C 
ATOM      8  C   UNL     1     100.292 120.555  78.390  1.00  0.00    -0.020 A 
ATOM      9  C   UNL     1      99.958 119.895  80.822  1.00  0.00    -0.011 A 
ATOM     10  C   UNL     1      99.880 120.762  79.724  1.00  0.00     0.010 A 
ATOM     11  C   UNL     1     100.300 117.498  81.268  1.00  0.00    -0.007 C 
ATOM     12  C   UNL     1      99.346 122.035  79.832  1.00  0.00     0.046 A 
ATOM     13  C   UNL     1     103.068 117.106  78.011  1.00  0.00     0.106 C 
ATOM     14  C   UNL     1     100.003 121.704  77.691  1.00  0.00     0.087 A 
ATOM     15  C   UNL     1      99.474 120.368  82.047  1.00  0.00     0.009 A 
ATOM     16  C   UNL     1      98.854 122.519  81.046  1.00  0.00     0.027 A 
ATOM     17  C   UNL     1      98.933 121.657  82.151  1.00  0.00     0.003 A 
ATOM     18  H   UNL     1      99.114 123.524  78.339  1.00  0.00     0.166 HD
ENDROOT
BRANCH   7  19
ATOM     19  C   UNL     1     101.325 115.478  82.304  1.00  0.00     0.225 C 
ATOM     20  O   UNL     1     102.129 114.559  82.413  1.00  0.00    -0.275 OA
ATOM     21  N   UNL     1     100.688 115.967  83.414  1.00  0.00    -0.369 N 
ATOM     22  H   UNL     1     100.871 115.506  84.296  1.00  0.00     0.159 HD
ATOM     23  H   UNL     1      99.929 116.630  83.358  1.00  0.00     0.159 HD
ENDBRANCH   7  19
TORSDOF 1
ENDMDL
MODEL 4
REMARK VINA RESULT:    -8.297      2.447      6.407
REMARK INTER + INTRA:          -8.877
REMARK INTER:                  -8.769
REMARK INTRA:                  -0.108
REMARK UNBOUND:                -0.095
REMARK SMILES CN1C[C@H](C(N)=O)C=C2c3cccc4[nH]cc(c34)C[C@H]21
REMARK SMILES IDX 2 1 15 2 20 3 9 4 19 5 3 6 4 7 17 8 10 9 18 10 8 11 14 12
REMARK SMILES IDX 1 13 16 14 11 15 13 16 12 17 5 19 7 20 6 21
REMARK H PARENT 15 18 6 22 6 23
ROOT
ATOM      1  N   UNL     1     100.331 121.458  79.342  1.00  0.00    -0.298 NA
ATOM      2  N   UNL     1     103.018 116.353  77.642  1.00  0.00    -0.361 N 
ATOM      3  C   UNL     1     100.580 120.000  79.111  1.00  0.00     0.091 C 
ATOM      4  C   UNL     1     100.709 119.183  80.438  1.00  0.00    -0.026 C 
ATOM      5  C   UNL     1     101.822 119.813  78.157  1.00  0.00     0.061 C 
ATOM      6  C   UNL     1      99.365 121.648  80.445  1.00  0.00     0.102 C 
ATOM      7  C   UNL     1      99.941 121.138  81.777  1.00  0.00     0.115 C 
ATOM      8  C   UNL     1     102.230 118.381  78.087  1.00  0.00    -0.020 A 
ATOM      9  C   UNL     1     101.162 117.779  80.314  1.00  0.00    -0.011 A 
ATOM     10  C   UNL     1     101.881 117.511  79.142  1.00  0.00     0.010 A 
ATOM     11  C   UNL     1     100.446 119.723  81.644  1.00  0.00    -0.007 C 
ATOM     12  C   UNL     1     102.374 116.249  78.857  1.00  0.00     0.046 A 
ATOM     13  C   UNL     1      99.821 122.115  78.135  1.00  0.00     0.106 C 
ATOM     14  C   UNL     1     102.937 117.644  77.166  1.00  0.00     0.087 A 
ATOM     15  C   UNL     1     100.953 116.711  81.195  1.00  0.00     0.009 A 
ATOM     16  C   UNL     1     102.179 115.175  79.729  1.00  0.00     0.027 A 
ATOM     17  C   UNL     1     101.455 115.435  80.903  1.00  0.00     0.003 A 
ATOM     18  H   UNL     1     103.484 115.589  77.174  1.00  0.00     0.166 HD
ENDROOT
BRANCH   7  19
ATOM     19  C   UNL     1      98.871 121.214  82.869  1.00  0.00     0.225 C 
ATOM     20  O   UNL     1      99.081 121.081  84.070  1.00  0.00    -0.275 OA
ATOM     21  N   UNL     1      97.600 121.456  82.418  1.00  0.00    -0.369 N 
ATOM     22  H   UNL     1      96.856 121.466  83.104  1.00  0.00     0.159 HD
ATOM     23  H   UNL     1      97.360 121.444  81.437  1.00  0.00     0.159 HD
ENDBRANCH   7  19
TORSDOF 1
ENDMDL
MODEL 5
REMARK VINA RESULT:    -7.481      2.510      5.540
REMARK INTER + INTRA:          -8.013
REMARK INTER:                  -7.891
REMARK INTRA:                  -0.122
REMARK UNBOUND:                -0.095
REMARK SMILES CN1C[C@H](C(N)=O)C=C2c3cccc4[nH]cc(c34)C[C@H]21
REMARK SMILES IDX 2 1 15 2 20 3 9 4 19 5 3 6 4 7 17 8 10 9 18 10 8 11 14 12
REMARK SMILES IDX 1 13 16 14 11 15 13 16 12 17 5 19 7 20 6 21
REMARK H PARENT 15 18 6 22 6 23
ROOT
ATOM      1  N   UNL     1     100.524 118.572  78.197  1.00  0.00    -0.298 NA
ATOM      2  N   UNL     1     101.464 115.378  83.205  1.00  0.00    -0.361 N 
ATOM      3  C   UNL     1     100.336 118.009  79.570  1.00  0.00     0.091 C 
ATOM      4  C   UNL     1     100.433 119.092  80.694  1.00  0.00    -0.026 C 
ATOM      5  C   UNL     1     101.329 116.805  79.797  1.00  0.00     0.061 C 
ATOM      6  C   UNL     1      99.817 119.863  78.067  1.00  0.00     0.102 C 
ATOM      7  C   UNL     1     100.422 120.921  79.005  1.00  0.00     0.115 C 
ATOM      8  C   UNL     1     101.323 116.370  81.223  1.00  0.00    -0.020 A 
ATOM      9  C   UNL     1     100.469 118.601  82.091  1.00  0.00    -0.011 A 
ATOM     10  C   UNL     1     100.911 117.278  82.221  1.00  0.00     0.010 A 
ATOM     11  C   UNL     1     100.504 120.409  80.421  1.00  0.00    -0.007 C 
ATOM     12  C   UNL     1     101.000 116.653  83.453  1.00  0.00     0.046 A 
ATOM     13  C   UNL     1     100.039 117.650  77.166  1.00  0.00     0.106 C 
ATOM     14  C   UNL     1     101.664 115.196  81.853  1.00  0.00     0.087 A 
ATOM     15  C   UNL     1     100.112 119.275  83.265  1.00  0.00     0.009 A 
ATOM     16  C   UNL     1     100.654 117.314  84.634  1.00  0.00     0.027 A 
ATOM     17  C   UNL     1     100.205 118.639  84.510  1.00  0.00     0.003 A 
ATOM     18  H   UNL     1     101.635 114.682  83.917  1.00  0.00     0.166 HD
ENDROOT
BRANCH   7  19
ATOM     19  C   UNL     1      99.582 122.201  78.956  1.00  0.00     0.225 C 
ATOM     20  O   UNL     1      99.538 122.977  78.008  1.00  0.00    -0.275 OA
ATOM     21  N   UNL     1      98.838 122.447  80.079  1.00  0.00    -0.369 N 
ATOM     22  H   UNL     1      98.306 123.308  80.106  1.00  0.00     0.159 HD
ATOM     23  H   UNL     1      98.941 121.910  80.928  1.00  0.00     0.159 HD
ENDBRANCH   7  19
TORSDOF 1
ENDMDL
MODEL 6
REMARK VINA RESULT:    -7.255      1.883      3.883
REMARK INTER + INTRA:          -7.774
REMARK INTER:                  -7.669
REMARK INTRA:                  -0.105
REMARK UNBOUND:                -0.095
REMARK SMILES CN1C[C@H](C(N)=O)C=C2c3cccc4[nH]cc(c34)C[C@H]21
REMARK SMILES IDX 2 1 15 2 20 3 9 4 19 5 3 6 4 7 17 8 10 9 18 10 8 11 14 12
REMARK SMILES IDX 1 13 16 14 11 15 13 16 12 17 5 19 7 20 6 21
REMARK H PARENT 15 18 6 22 6 23
ROOT
ATOM      1  N   UNL     1     102.218 118.756  77.881  1.00  0.00    -0.298 NA
ATOM      2  N   UNL     1      99.379 121.136  82.619  1.00  0.00    -0.361 N 
ATOM      3  C   UNL     1     101.897 119.135  79.293  1.00  0.00     0.091 C 
ATOM      4  C   UNL     1     101.583 117.902  80.202  1.00  0.00    -0.026 C 
ATOM      5  C   UNL     1     100.746 120.213  79.310  1.00  0.00     0.061 C 
ATOM      6  C   UNL     1     103.080 117.556  77.853  1.00  0.00     0.102 C 
ATOM      7  C   UNL     1     102.342 116.333  78.424  1.00  0.00     0.115 C 
ATOM      8  C   UNL     1     100.253 120.445  80.697  1.00  0.00    -0.020 A 
ATOM      9  C   UNL     1     101.052 118.190  81.554  1.00  0.00    -0.011 A 
ATOM     10  C   UNL     1     100.436 119.442  81.673  1.00  0.00     0.010 A 
ATOM     11  C   UNL     1     101.760 116.635  79.782  1.00  0.00    -0.007 C 
ATOM     12  C   UNL     1      99.891 119.881  82.868  1.00  0.00     0.046 A 
ATOM     13  C   UNL     1     102.888 119.848  77.169  1.00  0.00     0.106 C 
ATOM     14  C   UNL     1      99.593 121.489  81.303  1.00  0.00     0.087 A 
ATOM     15  C   UNL     1     101.102 117.389  82.702  1.00  0.00     0.009 A 
ATOM     16  C   UNL     1      99.927 119.091  84.019  1.00  0.00     0.027 A 
ATOM     17  C   UNL     1     100.547 117.836  83.909  1.00  0.00     0.003 A 
ATOM     18  H   UNL     1      98.913 121.711  83.306  1.00  0.00     0.166 HD
ENDROOT
BRANCH   7  19
ATOM     19  C   UNL     1     103.302 115.143  78.516  1.00  0.00     0.225 C 
ATOM     20  O   UNL     1     103.283 114.291  79.398  1.00  0.00    -0.275 OA
ATOM     21  N   UNL     1     104.227 115.067  77.509  1.00  0.00    -0.369 N 
ATOM     22  H   UNL     1     104.911 114.322  77.559  1.00  0.00     0.159 HD
ATOM     23  H   UNL     1     104.363 115.810  76.838  1.00  0.00     0.159 HD
ENDBRANCH   7  19
TORSDOF 1
ENDMDL
MODEL 7
REMARK VINA RESULT:    -7.174      2.660      5.559
REMARK INTER + INTRA:          -7.688
REMARK INTER:                  -7.579
REMARK INTRA:                  -0.109
REMARK UNBOUND:                -0.095
REMARK SMILES CN1C[C@H](C(N)=O)C=C2c3cccc4[nH]cc(c34)C[C@H]21
REMARK SMILES IDX 2 1 15 2 20 3 9 4 19 5 3 6 4 7 17 8 10 9 18 10 8 11 14 12
REMARK SMILES IDX 1 13 16 14 11 15 13 16 12 17 5 19 7 20 6 21
REMARK H PARENT 15 18 6 22 6 23
ROOT
ATOM      1  N   UNL     1      98.774 121.151  82.182  1.00  0.00    -0.298 NA
ATOM      2  N   UNL     1     102.609 117.238  79.702  1.00  0.00    -0.361 N 
ATOM      3  C   UNL     1      99.951 120.605  81.436  1.00  0.00     0.091 C 
ATOM      4  C   UNL     1      99.941 120.979  79.918  1.00  0.00    -0.026 C 
ATOM      5  C   UNL     1     100.064 119.050  81.679  1.00  0.00     0.061 C 
ATOM      6  C   UNL     1      98.484 122.533  81.745  1.00  0.00     0.102 C 
ATOM      7  C   UNL     1      98.055 122.567  80.268  1.00  0.00     0.115 C 
ATOM      8  C   UNL     1     101.085 118.442  80.778  1.00  0.00    -0.020 A 
ATOM      9  C   UNL     1     100.948 120.311  79.061  1.00  0.00    -0.011 A 
ATOM     10  C   UNL     1     101.427 119.101  79.578  1.00  0.00     0.010 A 
ATOM     11  C   UNL     1      99.054 121.848  79.397  1.00  0.00    -0.007 C 
ATOM     12  C   UNL     1     102.379 118.345  78.914  1.00  0.00     0.046 A 
ATOM     13  C   UNL     1      99.002 121.140  83.630  1.00  0.00     0.106 C 
ATOM     14  C   UNL     1     101.828 117.287  80.837  1.00  0.00     0.087 A 
ATOM     15  C   UNL     1     101.475 120.737  77.835  1.00  0.00     0.009 A 
ATOM     16  C   UNL     1     102.909 118.754  77.688  1.00  0.00     0.027 A 
ATOM     17  C   UNL     1     102.436 119.968  77.166  1.00  0.00     0.003 A 
ATOM     18  H   UNL     1     103.258 116.498  79.474  1.00  0.00     0.166 HD
ENDROOT
BRANCH   7  19
ATOM     19  C   UNL     1      97.901 124.018  79.805  1.00  0.00     0.225 C 
ATOM     20  O   UNL     1      97.654 124.968  80.539  1.00  0.00    -0.275 OA
ATOM     21  N   UNL     1      98.068 124.216  78.460  1.00  0.00    -0.369 N 
ATOM     22  H   UNL     1      97.926 125.154  78.106  1.00  0.00     0.159 HD
ATOM     23  H   UNL     1      98.144 123.453  77.802  1.00  0.00     0.159 HD
ENDBRANCH   7  19
TORSDOF 1
ENDMDL
MODEL 8
REMARK VINA RESULT:    -7.172      2.518      4.956
REMARK INTER + INTRA:          -7.685
REMARK INTER:                  -7.563
REMARK INTRA:                  -0.122
REMARK UNBOUND:                -0.095
REMARK SMILES CN1C[C@H](C(N)=O)C=C2c3cccc4[nH]cc(c34)C[C@H]21
REMARK SMILES IDX 2 1 15 2 20 3 9 4 19 5 3 6 4 7 17 8 10 9 18 10 8 11 14 12
REMARK SMILES IDX 1 13 16 14 11 15 13 16 12 17 5 19 7 20 6 21
REMARK H PARENT 15 18 6 22 6 23
ROOT
ATOM      1  N   UNL     1     100.575 119.007  79.143  1.00  0.00    -0.298 NA
ATOM      2  N   UNL     1     100.493 117.669  85.006  1.00  0.00    -0.361 N 
ATOM      3  C   UNL     1     100.100 118.872  80.555  1.00  0.00     0.091 C 
ATOM      4  C   UNL     1      99.852 120.250  81.252  1.00  0.00    -0.026 C 
ATOM      5  C   UNL     1     101.087 117.948  81.367  1.00  0.00     0.061 C 
ATOM      6  C   UNL     1      99.836 120.084  78.451  1.00  0.00     0.102 C 
ATOM      7  C   UNL     1     100.126 121.452  79.089  1.00  0.00     0.115 C 
ATOM      8  C   UNL     1     100.768 117.974  82.822  1.00  0.00    -0.020 A 
ATOM      9  C   UNL     1      99.584 120.221  82.709  1.00  0.00    -0.011 A 
ATOM     10  C   UNL     1     100.069 119.077  83.357  1.00  0.00     0.010 A 
ATOM     11  C   UNL     1      99.899 121.416  80.579  1.00  0.00    -0.007 C 
ATOM     12  C   UNL     1      99.900 118.879  84.717  1.00  0.00     0.046 A 
ATOM     13  C   UNL     1     100.415 117.755  78.398  1.00  0.00     0.106 C 
ATOM     14  C   UNL     1     101.024 117.110  83.862  1.00  0.00     0.087 A 
ATOM     15  C   UNL     1      98.911 121.165  83.493  1.00  0.00     0.009 A 
ATOM     16  C   UNL     1      99.237 119.814  85.514  1.00  0.00     0.027 A 
ATOM     17  C   UNL     1      98.744 120.961  84.870  1.00  0.00     0.003 A 
ATOM     18  H   UNL     1     100.533 117.255  85.926  1.00  0.00     0.166 HD
ENDROOT
BRANCH   7  19
ATOM     19  C   UNL     1      99.240 122.524  78.448  1.00  0.00     0.225 C 
ATOM     20  O   UNL     1      99.512 123.140  77.424  1.00  0.00    -0.275 OA
ATOM     21  N   UNL     1      98.063 122.769  79.104  1.00  0.00    -0.369 N 
ATOM     22  H   UNL     1      97.471 123.505  78.739  1.00  0.00     0.159 HD
ATOM     23  H   UNL     1      97.857 122.382  80.014  1.00  0.00     0.159 HD
ENDBRANCH   7  19
TORSDOF 1
ENDMDL
MODEL 9
REMARK VINA RESULT:    -6.945      3.970      5.886
REMARK INTER + INTRA:          -7.446
REMARK INTER:                  -7.346
REMARK INTRA:                  -0.100
REMARK UNBOUND:                -0.095
REMARK SMILES CN1C[C@H](C(N)=O)C=C2c3cccc4[nH]cc(c34)C[C@H]21
REMARK SMILES IDX 2 1 15 2 20 3 9 4 19 5 3 6 4 7 17 8 10 9 18 10 8 11 14 12
REMARK SMILES IDX 1 13 16 14 11 15 13 16 12 17 5 19 7 20 6 21
REMARK H PARENT 15 18 6 22 6 23
ROOT
ATOM      1  N   UNL     1      99.721 115.401  82.532  1.00  0.00    -0.298 NA
ATOM      2  N   UNL     1     101.818 117.452  77.282  1.00  0.00    -0.361 N 
ATOM      3  C   UNL     1     100.648 115.977  81.508  1.00  0.00     0.091 C 
ATOM      4  C   UNL     1     101.064 117.452  81.820  1.00  0.00    -0.026 C 
ATOM      5  C   UNL     1     100.026 115.811  80.068  1.00  0.00     0.061 C 
ATOM      6  C   UNL     1     100.144 115.797  83.892  1.00  0.00     0.102 C 
ATOM      7  C   UNL     1     100.034 117.319  84.083  1.00  0.00     0.115 C 
ATOM      8  C   UNL     1     100.815 116.568  79.056  1.00  0.00    -0.020 A 
ATOM      9  C   UNL     1     101.807 118.172  80.760  1.00  0.00    -0.011 A 
ATOM     10  C   UNL     1     101.611 117.656  79.472  1.00  0.00     0.010 A 
ATOM     11  C   UNL     1     100.750 118.058  82.981  1.00  0.00    -0.007 C 
ATOM     12  C   UNL     1     102.234 118.200  78.362  1.00  0.00     0.046 A 
ATOM     13  C   UNL     1      99.668 113.939  82.450  1.00  0.00     0.106 C 
ATOM     14  C   UNL     1     100.955 116.458  77.692  1.00  0.00     0.087 A 
ATOM     15  C   UNL     1     102.669 119.268  80.886  1.00  0.00     0.009 A 
ATOM     16  C   UNL     1     103.092 119.297  78.471  1.00  0.00     0.027 A 
ATOM     17  C   UNL     1     103.296 119.817  79.759  1.00  0.00     0.003 A 
ATOM     18  H   UNL     1     102.105 117.615  76.327  1.00  0.00     0.166 HD
ENDROOT
BRANCH   7  19
ATOM     19  C   UNL     1     100.613 117.715  85.444  1.00  0.00     0.225 C 
ATOM     20  O   UNL     1     101.728 117.408  85.850  1.00  0.00    -0.275 OA
ATOM     21  N   UNL     1      99.784 118.476  86.226  1.00  0.00    -0.369 N 
ATOM     22  H   UNL     1     100.111 118.718  87.153  1.00  0.00     0.159 HD
ATOM     23  H   UNL     1      98.817 118.644  85.990  1.00  0.00     0.159 HD
ENDBRANCH   7  19
TORSDOF 1
ENDMDL
MODEL 10
REMARK VINA RESULT:    -6.747      2.514      5.442
REMARK INTER + INTRA:          -7.236
REMARK INTER:                  -7.117
REMARK INTRA:                  -0.120
REMARK UNBOUND:                -0.095
REMARK SMILES CN1C[C@H](C(N)=O)C=C2c3cccc4[nH]cc(c34)C[C@H]21
REMARK SMILES IDX 2 1 15 2 20 3 9 4 19 5 3 6 4 7 17 8 10 9 18 10 8 11 14 12
REMARK SMILES IDX 1 13 16 14 11 15 13 16 12 17 5 19 7 20 6 21
REMARK H PARENT 15 18 6 22 6 23
ROOT
ATOM      1  N   UNL     1      99.514 120.645  81.369  1.00  0.00    -0.298 NA
ATOM      2  N   UNL     1     102.151 115.304  80.537  1.00  0.00    -0.361 N 
ATOM      3  C   UNL     1     100.492 119.607  80.916  1.00  0.00     0.091 C 
ATOM      4  C   UNL     1     100.543 119.451  79.361  1.00  0.00    -0.026 C 
ATOM      5  C   UNL     1     100.206 118.243  81.656  1.00  0.00     0.061 C 
ATOM      6  C   UNL     1      99.579 121.832  80.491  1.00  0.00     0.102 C 
ATOM      7  C   UNL     1      99.139 121.485  79.059  1.00  0.00     0.115 C 
ATOM      8  C   UNL     1     101.014 117.138  81.067  1.00  0.00    -0.020 A 
ATOM      9  C   UNL     1     101.323 118.308  78.832  1.00  0.00    -0.011 A 
ATOM     10  C   UNL     1     101.486 117.256  79.743  1.00  0.00     0.010 A 
ATOM     11  C   UNL     1      99.897 120.293  78.532  1.00  0.00    -0.007 C 
ATOM     12  C   UNL     1     102.195 116.111  79.420  1.00  0.00     0.046 A 
ATOM     13  C   UNL     1      99.765 121.054  82.754  1.00  0.00     0.106 C 
ATOM     14  C   UNL     1     101.435 115.918  81.544  1.00  0.00     0.087 A 
ATOM     15  C   UNL     1     101.913 118.161  77.571  1.00  0.00     0.009 A 
ATOM     16  C   UNL     1     102.784 115.946  78.165  1.00  0.00     0.027 A 
ATOM     17  C   UNL     1     102.628 116.999  77.248  1.00  0.00     0.003 A 
ATOM     18  H   UNL     1     102.581 114.393  80.603  1.00  0.00     0.166 HD
ENDROOT
BRANCH   7  19
ATOM     19  C   UNL     1      99.353 122.692  78.141  1.00  0.00     0.225 C 
ATOM     20  O   UNL     1      98.756 123.759  78.233  1.00  0.00    -0.275 OA
ATOM     21  N   UNL     1     100.298 122.516  77.166  1.00  0.00    -0.369 N 
ATOM     22  H   UNL     1     100.435 123.273  76.508  1.00  0.00     0.159 HD
ATOM     23  H   UNL     1     100.719 121.619  76.971  1.00  0.00     0.159 HD
ENDBRANCH   7  19
TORSDOF 1
ENDMDL
MODEL 11
REMARK VINA RESULT:    -6.402      5.264      7.826
REMARK INTER + INTRA:          -6.871
REMARK INTER:                  -6.765
REMARK INTRA:                  -0.106
REMARK UNBOUND:                -0.095
REMARK SMILES CN1C[C@H](C(N)=O)C=C2c3cccc4[nH]cc(c34)C[C@H]21
REMARK SMILES IDX 2 1 15 2 20 3 9 4 19 5 3 6 4 7 17 8 10 9 18 10 8 11 14 12
REMARK SMILES IDX 1 13 16 14 11 15 13 16 12 17 5 19 7 20 6 21
REMARK H PARENT 15 18 6 22 6 23
ROOT
ATOM      1  N   UNL     1      99.582 118.214  87.745  1.00  0.00    -0.298 NA
ATOM      2  N   UNL     1     100.853 118.501  81.874  1.00  0.00    -0.361 N 
ATOM      3  C   UNL     1      99.988 118.759  86.412  1.00  0.00     0.091 C 
ATOM      4  C   UNL     1      99.001 119.841  85.866  1.00  0.00    -0.026 C 
ATOM      5  C   UNL     1     100.216 117.574  85.396  1.00  0.00     0.061 C 
ATOM      6  C   UNL     1      99.092 119.302  88.619  1.00  0.00     0.102 C 
ATOM      7  C   UNL     1      97.809 119.931  88.050  1.00  0.00     0.115 C 
ATOM      8  C   UNL     1     100.403 118.088  84.010  1.00  0.00    -0.020 A 
ATOM      9  C   UNL     1      99.205 120.283  84.467  1.00  0.00    -0.011 A 
ATOM     10  C   UNL     1      99.893 119.359  83.669  1.00  0.00     0.010 A 
ATOM     11  C   UNL     1      97.997 120.341  86.611  1.00  0.00    -0.007 C 
ATOM     12  C   UNL     1     100.179 119.610  82.338  1.00  0.00     0.046 A 
ATOM     13  C   UNL     1     100.693 117.526  88.408  1.00  0.00     0.106 C 
ATOM     14  C   UNL     1     100.995 117.570  82.882  1.00  0.00     0.087 A 
ATOM     15  C   UNL     1      98.816 121.485  83.864  1.00  0.00     0.009 A 
ATOM     16  C   UNL     1      99.792 120.801  81.720  1.00  0.00     0.027 A 
ATOM     17  C   UNL     1      99.107 121.734  82.515  1.00  0.00     0.003 A 
ATOM     18  H   UNL     1     101.192 118.390  80.929  1.00  0.00     0.166 HD
ENDROOT
BRANCH   7  19
ATOM     19  C   UNL     1      97.406 121.143  88.894  1.00  0.00     0.225 C 
ATOM     20  O   UNL     1      97.073 122.234  88.443  1.00  0.00    -0.275 OA
ATOM     21  N   UNL     1      97.430 120.939  90.248  1.00  0.00    -0.369 N 
ATOM     22  H   UNL     1      97.217 121.730  90.842  1.00  0.00     0.159 HD
ATOM     23  H   UNL     1      97.819 120.105  90.666  1.00  0.00     0.159 HD
ENDBRANCH   7  19
TORSDOF 1
ENDMDL
MODEL 12
REMARK VINA RESULT:    -6.358      4.194      6.521
REMARK INTER + INTRA:          -6.824
REMARK INTER:                  -6.706
REMARK INTRA:                  -0.118
REMARK UNBOUND:                -0.095
REMARK SMILES CN1C[C@H](C(N)=O)C=C2c3cccc4[nH]cc(c34)C[C@H]21
REMARK SMILES IDX 2 1 15 2 20 3 9 4 19 5 3 6 4 7 17 8 10 9 18 10 8 11 14 12
REMARK SMILES IDX 1 13 16 14 11 15 13 16 12 17 5 19 7 20 6 21
REMARK H PARENT 15 18 6 22 6 23
ROOT
ATOM      1  N   UNL     1     100.763 118.677  82.962  1.00  0.00    -0.298 NA
ATOM      2  N   UNL     1      99.074 118.180  88.713  1.00  0.00    -0.361 N 
ATOM      3  C   UNL     1      99.900 118.651  84.185  1.00  0.00     0.091 C 
ATOM      4  C   UNL     1      99.254 120.037  84.508  1.00  0.00    -0.026 C 
ATOM      5  C   UNL     1     100.712 118.058  85.401  1.00  0.00     0.061 C 
ATOM      6  C   UNL     1     100.125 119.481  81.899  1.00  0.00     0.102 C 
ATOM      7  C   UNL     1     100.004 120.956  82.319  1.00  0.00     0.115 C 
ATOM      8  C   UNL     1      99.960 118.225  86.676  1.00  0.00    -0.020 A 
ATOM      9  C   UNL     1      98.558 120.160  85.810  1.00  0.00    -0.011 A 
ATOM     10  C   UNL     1      98.979 119.235  86.774  1.00  0.00     0.010 A 
ATOM     11  C   UNL     1      99.337 121.084  83.665  1.00  0.00    -0.007 C 
ATOM     12  C   UNL     1      98.430 119.200  88.045  1.00  0.00     0.046 A 
ATOM     13  C   UNL     1     101.021 117.326  82.456  1.00  0.00     0.106 C 
ATOM     14  C   UNL     1     100.006 117.581  87.891  1.00  0.00     0.087 A 
ATOM     15  C   UNL     1      97.547 121.056  86.180  1.00  0.00     0.009 A 
ATOM     16  C   UNL     1      97.426 120.090  88.431  1.00  0.00     0.027 A 
ATOM     17  C   UNL     1      96.996 121.017  87.468  1.00  0.00     0.003 A 
ATOM     18  H   UNL     1      98.888 117.915  89.670  1.00  0.00     0.166 HD
ENDROOT
BRANCH   7  19
ATOM     19  C   UNL     1      99.214 121.734  81.264  1.00  0.00     0.225 C 
ATOM     20  O   UNL     1      99.572 121.909  80.104  1.00  0.00    -0.275 OA
ATOM     21  N   UNL     1      98.021 122.249  81.698  1.00  0.00    -0.369 N 
ATOM     22  H   UNL     1      97.491 122.811  81.044  1.00  0.00     0.159 HD
ATOM     23  H   UNL     1      97.747 122.242  82.670  1.00  0.00     0.159 HD
ENDBRANCH   7  19
TORSDOF 1
ENDMDL
MODEL 13
REMARK VINA RESULT:    -6.279      4.957      7.562
REMARK INTER + INTRA:          -6.741
REMARK INTER:                  -6.635
REMARK INTRA:                  -0.106
REMARK UNBOUND:                -0.095
REMARK SMILES CN1C[C@H](C(N)=O)C=C2c3cccc4[nH]cc(c34)C[C@H]21
REMARK SMILES IDX 2 1 15 2 20 3 9 4 19 5 3 6 4 7 17 8 10 9 18 10 8 11 14 12
REMARK SMILES IDX 1 13 16 14 11 15 13 16 12 17 5 19 7 20 6 21
REMARK H PARENT 15 18 6 22 6 23
ROOT
ATOM      1  N   UNL     1      98.258 120.542  87.146  1.00  0.00    -0.298 NA
ATOM      2  N   UNL     1      99.853 120.502  81.347  1.00  0.00    -0.361 N 
ATOM      3  C   UNL     1      98.521 120.055  85.755  1.00  0.00     0.091 C 
ATOM      4  C   UNL     1      99.662 118.988  85.687  1.00  0.00    -0.026 C 
ATOM      5  C   UNL     1      98.776 121.282  84.797  1.00  0.00     0.061 C 
ATOM      6  C   UNL     1      98.301 119.417  88.103  1.00  0.00     0.102 C 
ATOM      7  C   UNL     1      99.708 118.801  88.169  1.00  0.00     0.115 C 
ATOM      8  C   UNL     1      99.259 120.825  83.463  1.00  0.00    -0.020 A 
ATOM      9  C   UNL     1     100.134 118.604  84.336  1.00  0.00    -0.011 A 
ATOM     10  C   UNL     1      99.884 119.565  83.348  1.00  0.00     0.010 A 
ATOM     11  C   UNL     1     100.213 118.451  86.792  1.00  0.00    -0.007 C 
ATOM     12  C   UNL     1     100.250 119.370  82.027  1.00  0.00     0.046 A 
ATOM     13  C   UNL     1      96.958 121.212  87.245  1.00  0.00     0.106 C 
ATOM     14  C   UNL     1      99.251 121.393  82.210  1.00  0.00     0.087 A 
ATOM     15  C   UNL     1     100.772 117.424  83.935  1.00  0.00     0.009 A 
ATOM     16  C   UNL     1     100.892 118.201  81.612  1.00  0.00     0.027 A 
ATOM     17  C   UNL     1     101.143 117.232  82.597  1.00  0.00     0.003 A 
ATOM     18  H   UNL     1      99.990 120.654  80.358  1.00  0.00     0.166 HD
ENDROOT
BRANCH   7  19
ATOM     19  C   UNL     1      99.689 117.553  89.055  1.00  0.00     0.225 C 
ATOM     20  O   UNL     1      99.986 116.423  88.684  1.00  0.00    -0.275 OA
ATOM     21  N   UNL     1      99.309 117.771  90.353  1.00  0.00    -0.369 N 
ATOM     22  H   UNL     1      99.237 116.964  90.959  1.00  0.00     0.159 HD
ATOM     23  H   UNL     1      98.934 118.654  90.670  1.00  0.00     0.159 HD
ENDBRANCH   7  19
TORSDOF 1
ENDMDL
MODEL 14
REMARK VINA RESULT:    -6.251      2.010      4.011
REMARK INTER + INTRA:          -6.711
REMARK INTER:                  -6.608
REMARK INTRA:                  -0.103
REMARK UNBOUND:                -0.095
REMARK SMILES CN1C[C@H](C(N)=O)C=C2c3cccc4[nH]cc(c34)C[C@H]21
REMARK SMILES IDX 2 1 15 2 20 3 9 4 19 5 3 6 4 7 17 8 10 9 18 10 8 11 14 12
REMARK SMILES IDX 1 13 16 14 11 15 13 16 12 17 5 19 7 20 6 21
REMARK H PARENT 15 18 6 22 6 23
ROOT
ATOM      1  N   UNL     1     101.068 119.374  78.857  1.00  0.00    -0.298 NA
ATOM      2  N   UNL     1      99.010 121.183  84.210  1.00  0.00    -0.361 N 
ATOM      3  C   UNL     1     100.978 119.601  80.333  1.00  0.00     0.091 C 
ATOM      4  C   UNL     1     100.834 118.274  81.149  1.00  0.00    -0.026 C 
ATOM      5  C   UNL     1      99.830 120.636  80.647  1.00  0.00     0.061 C 
ATOM      6  C   UNL     1     101.931 118.209  78.566  1.00  0.00     0.102 C 
ATOM      7  C   UNL     1     101.313 116.913  79.119  1.00  0.00     0.115 C 
ATOM      8  C   UNL     1      99.567 120.714  82.112  1.00  0.00    -0.020 A 
ATOM      9  C   UNL     1     100.527 118.410  82.592  1.00  0.00    -0.011 A 
ATOM     10  C   UNL     1      99.922 119.625  82.937  1.00  0.00     0.010 A 
ATOM     11  C   UNL     1     100.957 117.061  80.577  1.00  0.00    -0.007 C 
ATOM     12  C   UNL     1      99.573 119.925  84.243  1.00  0.00     0.046 A 
ATOM     13  C   UNL     1     101.597 120.551  78.162  1.00  0.00     0.106 C 
ATOM     14  C   UNL     1      99.001 121.672  82.921  1.00  0.00     0.087 A 
ATOM     15  C   UNL     1     100.774 117.500  83.627  1.00  0.00     0.009 A 
ATOM     16  C   UNL     1      99.808 119.027  85.285  1.00  0.00     0.027 A 
ATOM     17  C   UNL     1     100.418 117.808  84.948  1.00  0.00     0.003 A 
ATOM     18  H   UNL     1      98.654 121.672  85.019  1.00  0.00     0.166 HD
ENDROOT
BRANCH   7  19
ATOM     19  C   UNL     1     102.291 115.750  78.932  1.00  0.00     0.225 C 
ATOM     20  O   UNL     1     102.055 114.581  79.215  1.00  0.00    -0.275 OA
ATOM     21  N   UNL     1     103.505 116.095  78.399  1.00  0.00    -0.369 N 
ATOM     22  H   UNL     1     104.197 115.363  78.304  1.00  0.00     0.159 HD
ATOM     23  H   UNL     1     103.790 117.056  78.272  1.00  0.00     0.159 HD
ENDBRANCH   7  19
TORSDOF 1
ENDMDL
