MODEL 1
REMARK VINA RESULT:    -9.577      0.000      0.000
REMARK INTER + INTRA:         -10.240
REMARK INTER:                 -10.136
REMARK INTRA:                  -0.103
REMARK UNBOUND:                -0.103
REMARK SMILES CN1C[C@H](C(N)=O)C=C2c3cccc4[nH]cc(c34)C[C@H]21
REMARK SMILES IDX 2 1 15 2 20 3 9 4 19 5 3 6 4 7 17 8 10 9 18 10 8 11 14 12
REMARK SMILES IDX 1 13 16 14 11 15 13 16 12 17 5 19 7 20 6 21
REMARK H PARENT 15 18 6 22 6 23
ROOT
ATOM      1  N   UNL     1      95.587 123.395 114.923  1.00  0.00    -0.298 NA
ATOM      2  N   UNL     1      92.268 119.377 117.926  1.00  0.00    -0.361 N 
ATOM      3  C   UNL     1      94.438 122.774 115.654  1.00  0.00     0.091 C 
ATOM      4  C   UNL     1      94.115 123.489 117.007  1.00  0.00    -0.026 C 
ATOM      5  C   UNL     1      94.686 121.226 115.827  1.00  0.00     0.061 C 
ATOM      6  C   UNL     1      95.512 124.869 115.002  1.00  0.00     0.102 C 
ATOM      7  C   UNL     1      95.669 125.354 116.453  1.00  0.00     0.115 C 
ATOM      8  C   UNL     1      93.675 120.622 116.740  1.00  0.00    -0.020 A 
ATOM      9  C   UNL     1      93.136 122.821 117.896  1.00  0.00    -0.011 A 
ATOM     10  C   UNL     1      93.008 121.444 117.674  1.00  0.00     0.010 A 
ATOM     11  C   UNL     1      94.706 124.643 117.370  1.00  0.00    -0.007 C 
ATOM     12  C   UNL     1      92.132 120.662 118.408  1.00  0.00     0.046 A 
ATOM     13  C   UNL     1      95.614 122.987 113.516  1.00  0.00     0.106 C 
ATOM     14  C   UNL     1      93.203 119.342 116.913  1.00  0.00     0.087 A 
ATOM     15  C   UNL     1      92.335 123.386 118.896  1.00  0.00     0.009 A 
ATOM     16  C   UNL     1      91.331 121.209 119.412  1.00  0.00     0.027 A 
ATOM     17  C   UNL     1      91.451 122.590 119.637  1.00  0.00     0.003 A 
ATOM     18  H   UNL     1      91.756 118.579 118.272  1.00  0.00     0.166 HD
ENDROOT
BRANCH   7  19
ATOM     19  C   UNL     1      95.444 126.867 116.523  1.00  0.00     0.225 C 
ATOM     20  O   UNL     1      95.211 127.496 117.549  1.00  0.00    -0.275 OA
ATOM     21  N   UNL     1      95.527 127.520 115.322  1.00  0.00    -0.369 N 
ATOM     22  H   UNL     1      95.336 128.514 115.319  1.00  0.00     0.159 HD
ATOM     23  H   UNL     1      95.588 127.032 114.440  1.00  0.00     0.159 HD
ENDBRANCH   7  19
TORSDOF 1
ENDMDL
MODEL 2
REMARK VINA RESULT:    -8.989      6.882      9.104
REMARK INTER + INTRA:          -9.618
REMARK INTER:                  -9.500
REMARK INTRA:                  -0.118
REMARK UNBOUND:                -0.103
REMARK SMILES CN1C[C@H](C(N)=O)C=C2c3cccc4[nH]cc(c34)C[C@H]21
REMARK SMILES IDX 2 1 15 2 20 3 9 4 19 5 3 6 4 7 17 8 10 9 18 10 8 11 14 12
REMARK SMILES IDX 1 13 16 14 11 15 13 16 12 17 5 19 7 20 6 21
REMARK H PARENT 15 18 6 22 6 23
ROOT
ATOM      1  N   UNL     1      89.144 123.723 122.852  1.00  0.00    -0.298 NA
ATOM      2  N   UNL     1      90.606 118.370 120.532  1.00  0.00    -0.361 N 
ATOM      3  C   UNL     1      89.014 122.376 122.213  1.00  0.00     0.091 C 
ATOM      4  C   UNL     1      88.220 121.355 123.092  1.00  0.00    -0.026 C 
ATOM      5  C   UNL     1      90.438 121.841 121.794  1.00  0.00     0.061 C 
ATOM      6  C   UNL     1      87.874 124.110 123.501  1.00  0.00     0.102 C 
ATOM      7  C   UNL     1      87.537 123.162 124.664  1.00  0.00     0.115 C 
ATOM      8  C   UNL     1      90.366 120.416 121.362  1.00  0.00    -0.020 A 
ATOM      9  C   UNL     1      88.220 119.945 122.640  1.00  0.00    -0.011 A 
ATOM     10  C   UNL     1      89.299 119.610 121.811  1.00  0.00     0.010 A 
ATOM     11  C   UNL     1      87.581 121.721 124.220  1.00  0.00    -0.007 C 
ATOM     12  C   UNL     1      89.454 118.337 121.289  1.00  0.00     0.046 A 
ATOM     13  C   UNL     1      89.520 124.748 121.874  1.00  0.00     0.106 C 
ATOM     14  C   UNL     1      91.169 119.628 120.569  1.00  0.00     0.087 A 
ATOM     15  C   UNL     1      87.291 118.936 122.921  1.00  0.00     0.009 A 
ATOM     16  C   UNL     1      88.540 117.318 121.565  1.00  0.00     0.027 A 
ATOM     17  C   UNL     1      87.454 117.648 122.392  1.00  0.00     0.003 A 
ATOM     18  H   UNL     1      90.982 117.580 120.026  1.00  0.00     0.166 HD
ENDROOT
BRANCH   7  19
ATOM     19  C   UNL     1      86.152 123.497 125.223  1.00  0.00     0.225 C 
ATOM     20  O   UNL     1      85.916 123.782 126.392  1.00  0.00    -0.275 OA
ATOM     21  N   UNL     1      85.135 123.470 124.305  1.00  0.00    -0.369 N 
ATOM     22  H   UNL     1      84.197 123.639 124.645  1.00  0.00     0.159 HD
ATOM     23  H   UNL     1      85.259 123.118 123.367  1.00  0.00     0.159 HD
ENDBRANCH   7  19
TORSDOF 1
ENDMDL
MODEL 3
REMARK VINA RESULT:    -8.782      2.441      5.604
REMARK INTER + INTRA:          -9.399
REMARK INTER:                  -9.296
REMARK INTRA:                  -0.103
REMARK UNBOUND:                -0.103
REMARK SMILES CN1C[C@H](C(N)=O)C=C2c3cccc4[nH]cc(c34)C[C@H]21
REMARK SMILES IDX 2 1 15 2 20 3 9 4 19 5 3 6 4 7 17 8 10 9 18 10 8 11 14 12
REMARK SMILES IDX 1 13 16 14 11 15 13 16 12 17 5 19 7 20 6 21
REMARK H PARENT 15 18 6 22 6 23
ROOT
ATOM      1  N   UNL     1      92.822 121.197 115.863  1.00  0.00    -0.298 NA
ATOM      2  N   UNL     1      95.394 126.484 114.595  1.00  0.00    -0.361 N 
ATOM      3  C   UNL     1      93.769 122.355 115.907  1.00  0.00     0.091 C 
ATOM      4  C   UNL     1      93.728 123.129 117.265  1.00  0.00    -0.026 C 
ATOM      5  C   UNL     1      93.525 123.294 114.663  1.00  0.00     0.061 C 
ATOM      6  C   UNL     1      92.837 120.470 117.149  1.00  0.00     0.102 C 
ATOM      7  C   UNL     1      92.312 121.356 118.291  1.00  0.00     0.115 C 
ATOM      8  C   UNL     1      94.294 124.564 114.795  1.00  0.00    -0.020 A 
ATOM      9  C   UNL     1      94.472 124.408 117.325  1.00  0.00    -0.011 A 
ATOM     10  C   UNL     1      94.687 125.005 116.077  1.00  0.00     0.010 A 
ATOM     11  C   UNL     1      93.035 122.678 118.329  1.00  0.00    -0.007 C 
ATOM     12  C   UNL     1      95.373 126.200 115.944  1.00  0.00     0.046 A 
ATOM     13  C   UNL     1      93.156 120.269 114.779  1.00  0.00     0.106 C 
ATOM     14  C   UNL     1      94.741 125.496 113.887  1.00  0.00     0.087 A 
ATOM     15  C   UNL     1      94.985 125.069 118.448  1.00  0.00     0.009 A 
ATOM     16  C   UNL     1      95.885 126.875 117.054  1.00  0.00     0.027 A 
ATOM     17  C   UNL     1      95.677 126.280 118.309  1.00  0.00     0.003 A 
ATOM     18  H   UNL     1      95.825 127.302 114.188  1.00  0.00     0.166 HD
ENDROOT
BRANCH   7  19
ATOM     19  C   UNL     1      92.474 120.630 119.629  1.00  0.00     0.225 C 
ATOM     20  O   UNL     1      92.771 119.447 119.756  1.00  0.00    -0.275 OA
ATOM     21  N   UNL     1      92.265 121.407 120.738  1.00  0.00    -0.369 N 
ATOM     22  H   UNL     1      92.315 120.953 121.641  1.00  0.00     0.159 HD
ATOM     23  H   UNL     1      91.895 122.345 120.683  1.00  0.00     0.159 HD
ENDBRANCH   7  19
TORSDOF 1
ENDMDL
MODEL 4
REMARK VINA RESULT:    -8.660      4.380      8.063
REMARK INTER + INTRA:          -9.269
REMARK INTER:                  -9.162
REMARK INTRA:                  -0.107
REMARK UNBOUND:                -0.103
REMARK SMILES CN1C[C@H](C(N)=O)C=C2c3cccc4[nH]cc(c34)C[C@H]21
REMARK SMILES IDX 2 1 15 2 20 3 9 4 19 5 3 6 4 7 17 8 10 9 18 10 8 11 14 12
REMARK SMILES IDX 1 13 16 14 11 15 13 16 12 17 5 19 7 20 6 21
REMARK H PARENT 15 18 6 22 6 23
ROOT
ATOM      1  N   UNL     1      89.943 121.261 122.279  1.00  0.00    -0.298 NA
ATOM      2  N   UNL     1      93.366 122.035 117.395  1.00  0.00    -0.361 N 
ATOM      3  C   UNL     1      90.366 121.326 120.845  1.00  0.00     0.091 C 
ATOM      4  C   UNL     1      90.320 119.937 120.130  1.00  0.00    -0.026 C 
ATOM      5  C   UNL     1      91.776 122.023 120.733  1.00  0.00     0.061 C 
ATOM      6  C   UNL     1      88.774 120.369 122.432  1.00  0.00     0.102 C 
ATOM      7  C   UNL     1      89.136 118.919 122.069  1.00  0.00     0.115 C 
ATOM      8  C   UNL     1      92.322 121.903 119.351  1.00  0.00    -0.020 A 
ATOM      9  C   UNL     1      90.917 119.864 118.776  1.00  0.00    -0.011 A 
ATOM     10  C   UNL     1      91.865 120.862 118.515  1.00  0.00     0.010 A 
ATOM     11  C   UNL     1      89.787 118.845 120.711  1.00  0.00    -0.007 C 
ATOM     12  C   UNL     1      92.519 120.952 117.297  1.00  0.00     0.046 A 
ATOM     13  C   UNL     1      89.609 122.589 122.803  1.00  0.00     0.106 C 
ATOM     14  C   UNL     1      93.255 122.620 118.639  1.00  0.00     0.087 A 
ATOM     15  C   UNL     1      90.648 118.952 117.749  1.00  0.00     0.009 A 
ATOM     16  C   UNL     1      92.265 120.046 116.265  1.00  0.00     0.027 A 
ATOM     17  C   UNL     1      91.313 119.046 116.518  1.00  0.00     0.003 A 
ATOM     18  H   UNL     1      93.981 122.349 116.657  1.00  0.00     0.166 HD
ENDROOT
BRANCH   7  19
ATOM     19  C   UNL     1      87.877 118.047 122.098  1.00  0.00     0.225 C 
ATOM     20  O   UNL     1      87.865 116.827 121.977  1.00  0.00    -0.275 OA
ATOM     21  N   UNL     1      86.704 118.730 122.281  1.00  0.00    -0.369 N 
ATOM     22  H   UNL     1      85.846 118.196 122.257  1.00  0.00     0.159 HD
ATOM     23  H   UNL     1      86.652 119.739 122.256  1.00  0.00     0.159 HD
ENDBRANCH   7  19
TORSDOF 1
ENDMDL
MODEL 5
REMARK VINA RESULT:    -8.614      4.275      7.491
REMARK INTER + INTRA:          -9.221
REMARK INTER:                  -9.107
REMARK INTRA:                  -0.114
REMARK UNBOUND:                -0.103
REMARK SMILES CN1C[C@H](C(N)=O)C=C2c3cccc4[nH]cc(c34)C[C@H]21
REMARK SMILES IDX 2 1 15 2 20 3 9 4 19 5 3 6 4 7 17 8 10 9 18 10 8 11 14 12
REMARK SMILES IDX 1 13 16 14 11 15 13 16 12 17 5 19 7 20 6 21
REMARK H PARENT 15 18 6 22 6 23
ROOT
ATOM      1  N   UNL     1      91.256 121.136 121.907  1.00  0.00    -0.298 NA
ATOM      2  N   UNL     1      93.731 121.167 116.426  1.00  0.00    -0.361 N 
ATOM      3  C   UNL     1      91.392 121.189 120.418  1.00  0.00     0.091 C 
ATOM      4  C   UNL     1      90.730 119.967 119.700  1.00  0.00    -0.026 C 
ATOM      5  C   UNL     1      92.907 121.380 120.024  1.00  0.00     0.061 C 
ATOM      6  C   UNL     1      89.903 120.677 122.286  1.00  0.00     0.102 C 
ATOM      7  C   UNL     1      89.662 119.230 121.825  1.00  0.00     0.115 C 
ATOM      8  C   UNL     1      93.102 121.212 118.556  1.00  0.00    -0.020 A 
ATOM      9  C   UNL     1      90.995 119.824 118.249  1.00  0.00    -0.011 A 
ATOM     10  C   UNL     1      92.161 120.466 117.814  1.00  0.00     0.010 A 
ATOM     11  C   UNL     1      89.974 119.068 120.358  1.00  0.00    -0.007 C 
ATOM     12  C   UNL     1      92.559 120.444 116.488  1.00  0.00     0.046 A 
ATOM     13  C   UNL     1      91.511 122.445 122.517  1.00  0.00     0.106 C 
ATOM     14  C   UNL     1      94.071 121.638 117.677  1.00  0.00     0.087 A 
ATOM     15  C   UNL     1      90.234 119.155 117.283  1.00  0.00     0.009 A 
ATOM     16  C   UNL     1      91.814 119.776 115.514  1.00  0.00     0.027 A 
ATOM     17  C   UNL     1      90.641 119.133 115.942  1.00  0.00     0.003 A 
ATOM     18  H   UNL     1      94.263 121.324 115.582  1.00  0.00     0.166 HD
ENDROOT
BRANCH   7  19
ATOM     19  C   UNL     1      88.210 118.831 122.101  1.00  0.00     0.225 C 
ATOM     20  O   UNL     1      87.848 117.736 122.516  1.00  0.00    -0.275 OA
ATOM     21  N   UNL     1      87.285 119.811 121.855  1.00  0.00    -0.369 N 
ATOM     22  H   UNL     1      86.309 119.572 121.979  1.00  0.00     0.159 HD
ATOM     23  H   UNL     1      87.520 120.678 121.394  1.00  0.00     0.159 HD
ENDBRANCH   7  19
TORSDOF 1
ENDMDL
MODEL 6
REMARK VINA RESULT:    -8.314      2.698      6.309
REMARK INTER + INTRA:          -8.903
REMARK INTER:                  -8.781
REMARK INTRA:                  -0.122
REMARK UNBOUND:                -0.103
REMARK SMILES CN1C[C@H](C(N)=O)C=C2c3cccc4[nH]cc(c34)C[C@H]21
REMARK SMILES IDX 2 1 15 2 20 3 9 4 19 5 3 6 4 7 17 8 10 9 18 10 8 11 14 12
REMARK SMILES IDX 1 13 16 14 11 15 13 16 12 17 5 19 7 20 6 21
REMARK H PARENT 15 18 6 22 6 23
ROOT
ATOM      1  N   UNL     1      92.125 122.768 119.428  1.00  0.00    -0.298 NA
ATOM      2  N   UNL     1      95.652 124.612 114.919  1.00  0.00    -0.361 N 
ATOM      3  C   UNL     1      92.639 123.010 118.043  1.00  0.00     0.091 C 
ATOM      4  C   UNL     1      93.001 121.691 117.286  1.00  0.00    -0.026 C 
ATOM      5  C   UNL     1      93.837 124.036 118.088  1.00  0.00     0.061 C 
ATOM      6  C   UNL     1      91.206 121.611 119.442  1.00  0.00     0.102 C 
ATOM      7  C   UNL     1      91.946 120.314 119.072  1.00  0.00     0.115 C 
ATOM      8  C   UNL     1      94.511 124.126 116.762  1.00  0.00    -0.020 A 
ATOM      9  C   UNL     1      93.711 121.839 115.994  1.00  0.00    -0.011 A 
ATOM     10  C   UNL     1      94.400 123.050 115.855  1.00  0.00     0.010 A 
ATOM     11  C   UNL     1      92.708 120.473 117.781  1.00  0.00    -0.007 C 
ATOM     12  C   UNL     1      95.112 123.361 114.709  1.00  0.00     0.046 A 
ATOM     13  C   UNL     1      91.428 123.944 119.957  1.00  0.00     0.106 C 
ATOM     14  C   UNL     1      95.294 125.086 116.164  1.00  0.00     0.087 A 
ATOM     15  C   UNL     1      93.765 120.944 114.918  1.00  0.00     0.009 A 
ATOM     16  C   UNL     1      95.180 122.477 113.630  1.00  0.00     0.027 A 
ATOM     17  C   UNL     1      94.488 121.262 113.761  1.00  0.00     0.003 A 
ATOM     18  H   UNL     1      96.230 125.105 114.254  1.00  0.00     0.166 HD
ENDROOT
BRANCH   7  19
ATOM     19  C   UNL     1      90.946 119.161 118.953  1.00  0.00     0.225 C 
ATOM     20  O   UNL     1      90.343 118.654 119.893  1.00  0.00    -0.275 OA
ATOM     21  N   UNL     1      90.740 118.702 117.679  1.00  0.00    -0.369 N 
ATOM     22  H   UNL     1      90.123 117.908 117.564  1.00  0.00     0.159 HD
ATOM     23  H   UNL     1      91.306 118.998 116.896  1.00  0.00     0.159 HD
ENDBRANCH   7  19
TORSDOF 1
ENDMDL
MODEL 7
REMARK VINA RESULT:    -8.291      2.642      6.316
REMARK INTER + INTRA:          -8.879
REMARK INTER:                  -8.757
REMARK INTRA:                  -0.122
REMARK UNBOUND:                -0.103
REMARK SMILES CN1C[C@H](C(N)=O)C=C2c3cccc4[nH]cc(c34)C[C@H]21
REMARK SMILES IDX 2 1 15 2 20 3 9 4 19 5 3 6 4 7 17 8 10 9 18 10 8 11 14 12
REMARK SMILES IDX 1 13 16 14 11 15 13 16 12 17 5 19 7 20 6 21
REMARK H PARENT 15 18 6 22 6 23
ROOT
ATOM      1  N   UNL     1      92.303 122.393 119.024  1.00  0.00    -0.298 NA
ATOM      2  N   UNL     1      96.152 125.873 115.983  1.00  0.00    -0.361 N 
ATOM      3  C   UNL     1      92.934 123.160 117.905  1.00  0.00     0.091 C 
ATOM      4  C   UNL     1      93.425 122.245 116.736  1.00  0.00    -0.026 C 
ATOM      5  C   UNL     1      94.074 124.093 118.470  1.00  0.00     0.061 C 
ATOM      6  C   UNL     1      91.440 121.318 118.491  1.00  0.00     0.102 C 
ATOM      7  C   UNL     1      92.270 120.273 117.725  1.00  0.00     0.115 C 
ATOM      8  C   UNL     1      94.866 124.698 117.361  1.00  0.00    -0.020 A 
ATOM      9  C   UNL     1      94.246 122.890 115.686  1.00  0.00    -0.011 A 
ATOM     10  C   UNL     1      94.890 124.063 116.101  1.00  0.00     0.010 A 
ATOM     11  C   UNL     1      93.143 120.929 116.685  1.00  0.00    -0.007 C 
ATOM     12  C   UNL     1      95.692 124.801 115.248  1.00  0.00     0.046 A 
ATOM     13  C   UNL     1      91.507 123.265 119.893  1.00  0.00     0.106 C 
ATOM     14  C   UNL     1      95.657 125.820 117.269  1.00  0.00     0.087 A 
ATOM     15  C   UNL     1      94.442 122.488 114.359  1.00  0.00     0.009 A 
ATOM     16  C   UNL     1      95.902 124.410 113.924  1.00  0.00     0.027 A 
ATOM     17  C   UNL     1      95.256 123.238 113.499  1.00  0.00     0.003 A 
ATOM     18  H   UNL     1      96.767 126.590 115.626  1.00  0.00     0.166 HD
ENDROOT
BRANCH   7  19
ATOM     19  C   UNL     1      91.339 119.253 117.064  1.00  0.00     0.225 C 
ATOM     20  O   UNL     1      90.792 118.322 117.644  1.00  0.00    -0.275 OA
ATOM     21  N   UNL     1      91.130 119.445 115.724  1.00  0.00    -0.369 N 
ATOM     22  H   UNL     1      90.560 118.764 115.240  1.00  0.00     0.159 HD
ATOM     23  H   UNL     1      91.657 120.115 115.181  1.00  0.00     0.159 HD
ENDBRANCH   7  19
TORSDOF 1
ENDMDL
MODEL 8
REMARK VINA RESULT:    -8.256      2.688      6.161
REMARK INTER + INTRA:          -8.842
REMARK INTER:                  -8.730
REMARK INTRA:                  -0.112
REMARK UNBOUND:                -0.103
REMARK SMILES CN1C[C@H](C(N)=O)C=C2c3cccc4[nH]cc(c34)C[C@H]21
REMARK SMILES IDX 2 1 15 2 20 3 9 4 19 5 3 6 4 7 17 8 10 9 18 10 8 11 14 12
REMARK SMILES IDX 1 13 16 14 11 15 13 16 12 17 5 19 7 20 6 21
REMARK H PARENT 15 18 6 22 6 23
ROOT
ATOM      1  N   UNL     1      93.080 121.842 118.703  1.00  0.00    -0.298 NA
ATOM      2  N   UNL     1      95.757 127.012 117.197  1.00  0.00    -0.361 N 
ATOM      3  C   UNL     1      93.344 123.154 118.034  1.00  0.00     0.091 C 
ATOM      4  C   UNL     1      93.581 123.020 116.495  1.00  0.00    -0.026 C 
ATOM      5  C   UNL     1      94.522 123.902 118.770  1.00  0.00     0.061 C 
ATOM      6  C   UNL     1      92.187 121.009 117.869  1.00  0.00     0.102 C 
ATOM      7  C   UNL     1      92.864 120.636 116.539  1.00  0.00     0.115 C 
ATOM      8  C   UNL     1      94.956 125.101 117.998  1.00  0.00    -0.020 A 
ATOM      9  C   UNL     1      94.056 124.231 115.786  1.00  0.00    -0.011 A 
ATOM     10  C   UNL     1      94.700 125.162 116.612  1.00  0.00     0.010 A 
ATOM     11  C   UNL     1      93.390 121.862 115.835  1.00  0.00    -0.007 C 
ATOM     12  C   UNL     1      95.200 126.356 116.120  1.00  0.00     0.046 A 
ATOM     13  C   UNL     1      92.474 122.023 120.025  1.00  0.00     0.106 C 
ATOM     14  C   UNL     1      95.615 126.259 118.343  1.00  0.00     0.087 A 
ATOM     15  C   UNL     1      93.932 124.556 114.430  1.00  0.00     0.009 A 
ATOM     16  C   UNL     1      95.089 126.692 114.769  1.00  0.00     0.027 A 
ATOM     17  C   UNL     1      94.441 125.765 113.936  1.00  0.00     0.003 A 
ATOM     18  H   UNL     1      96.207 127.915 117.147  1.00  0.00     0.166 HD
ENDROOT
BRANCH   7  19
ATOM     19  C   UNL     1      91.869 119.899 115.639  1.00  0.00     0.225 C 
ATOM     20  O   UNL     1      90.977 119.157 116.036  1.00  0.00    -0.275 OA
ATOM     21  N   UNL     1      92.026 120.125 114.297  1.00  0.00    -0.369 N 
ATOM     22  H   UNL     1      91.419 119.618 113.665  1.00  0.00     0.159 HD
ATOM     23  H   UNL     1      92.820 120.621 113.918  1.00  0.00     0.159 HD
ENDBRANCH   7  19
TORSDOF 1
ENDMDL
MODEL 9
REMARK VINA RESULT:    -8.211      3.928      6.544
REMARK INTER + INTRA:          -8.794
REMARK INTER:                  -8.698
REMARK INTRA:                  -0.096
REMARK UNBOUND:                -0.103
REMARK SMILES CN1C[C@H](C(N)=O)C=C2c3cccc4[nH]cc(c34)C[C@H]21
REMARK SMILES IDX 2 1 15 2 20 3 9 4 19 5 3 6 4 7 17 8 10 9 18 10 8 11 14 12
REMARK SMILES IDX 1 13 16 14 11 15 13 16 12 17 5 19 7 20 6 21
REMARK H PARENT 15 18 6 22 6 23
ROOT
ATOM      1  N   UNL     1      91.783 122.659 119.052  1.00  0.00    -0.298 NA
ATOM      2  N   UNL     1      87.161 121.267 122.641  1.00  0.00    -0.361 N 
ATOM      3  C   UNL     1      90.973 121.995 120.122  1.00  0.00     0.091 C 
ATOM      4  C   UNL     1      90.732 120.474 119.851  1.00  0.00    -0.026 C 
ATOM      5  C   UNL     1      89.633 122.793 120.353  1.00  0.00     0.061 C 
ATOM      6  C   UNL     1      92.892 121.782 118.625  1.00  0.00     0.102 C 
ATOM      7  C   UNL     1      92.358 120.499 117.965  1.00  0.00     0.115 C 
ATOM      8  C   UNL     1      88.710 122.037 121.246  1.00  0.00    -0.020 A 
ATOM      9  C   UNL     1      89.771 119.784 120.741  1.00  0.00    -0.011 A 
ATOM     10  C   UNL     1      88.848 120.637 121.359  1.00  0.00     0.010 A 
ATOM     11  C   UNL     1      91.344 119.816 118.848  1.00  0.00    -0.007 C 
ATOM     12  C   UNL     1      87.881 120.165 122.230  1.00  0.00     0.046 A 
ATOM     13  C   UNL     1      92.329 123.941 119.508  1.00  0.00     0.106 C 
ATOM     14  C   UNL     1      87.656 122.410 122.049  1.00  0.00     0.087 A 
ATOM     15  C   UNL     1      89.683 118.419 121.043  1.00  0.00     0.009 A 
ATOM     16  C   UNL     1      87.776 118.806 122.537  1.00  0.00     0.027 A 
ATOM     17  C   UNL     1      88.701 117.945 121.924  1.00  0.00     0.003 A 
ATOM     18  H   UNL     1      86.382 121.235 123.282  1.00  0.00     0.166 HD
ENDROOT
BRANCH   7  19
ATOM     19  C   UNL     1      93.519 119.547 117.664  1.00  0.00     0.225 C 
ATOM     20  O   UNL     1      94.495 119.378 118.386  1.00  0.00    -0.275 OA
ATOM     21  N   UNL     1      93.407 118.851 116.489  1.00  0.00    -0.369 N 
ATOM     22  H   UNL     1      94.176 118.247 116.230  1.00  0.00     0.159 HD
ATOM     23  H   UNL     1      92.691 119.051 115.805  1.00  0.00     0.159 HD
ENDBRANCH   7  19
TORSDOF 1
ENDMDL
MODEL 10
REMARK VINA RESULT:    -8.070      5.640      8.681
REMARK INTER + INTRA:          -8.645
REMARK INTER:                  -8.527
REMARK INTRA:                  -0.117
REMARK UNBOUND:                -0.103
REMARK SMILES CN1C[C@H](C(N)=O)C=C2c3cccc4[nH]cc(c34)C[C@H]21
REMARK SMILES IDX 2 1 15 2 20 3 9 4 19 5 3 6 4 7 17 8 10 9 18 10 8 11 14 12
REMARK SMILES IDX 1 13 16 14 11 15 13 16 12 17 5 19 7 20 6 21
REMARK H PARENT 15 18 6 22 6 23
ROOT
ATOM      1  N   UNL     1      88.701 125.062 122.599  1.00  0.00    -0.298 NA
ATOM      2  N   UNL     1      91.721 120.792 119.628  1.00  0.00    -0.361 N 
ATOM      3  C   UNL     1      88.990 123.819 121.817  1.00  0.00     0.091 C 
ATOM      4  C   UNL     1      88.665 122.509 122.607  1.00  0.00    -0.026 C 
ATOM      5  C   UNL     1      90.473 123.855 121.281  1.00  0.00     0.061 C 
ATOM      6  C   UNL     1      87.431 124.921 123.341  1.00  0.00     0.102 C 
ATOM      7  C   UNL     1      87.530 123.812 124.401  1.00  0.00     0.115 C 
ATOM      8  C   UNL     1      90.860 122.541 120.694  1.00  0.00    -0.020 A 
ATOM      9  C   UNL     1      89.113 121.236 121.998  1.00  0.00    -0.011 A 
ATOM     10  C   UNL     1      90.172 121.375 121.093  1.00  0.00     0.010 A 
ATOM     11  C   UNL     1      88.030 122.524 123.795  1.00  0.00    -0.007 C 
ATOM     12  C   UNL     1      90.713 120.290 120.423  1.00  0.00     0.046 A 
ATOM     13  C   UNL     1      88.625 126.239 121.729  1.00  0.00     0.106 C 
ATOM     14  C   UNL     1      91.819 122.159 119.784  1.00  0.00     0.087 A 
ATOM     15  C   UNL     1      88.611 119.944 122.202  1.00  0.00     0.009 A 
ATOM     16  C   UNL     1      90.227 118.996 120.620  1.00  0.00     0.027 A 
ATOM     17  C   UNL     1      89.162 118.849 121.524  1.00  0.00     0.003 A 
ATOM     18  H   UNL     1      92.303 120.234 119.020  1.00  0.00     0.166 HD
ENDROOT
BRANCH   7  19
ATOM     19  C   UNL     1      86.163 123.590 125.052  1.00  0.00     0.225 C 
ATOM     20  O   UNL     1      85.951 123.588 126.260  1.00  0.00    -0.275 OA
ATOM     21  N   UNL     1      85.130 123.391 124.175  1.00  0.00    -0.369 N 
ATOM     22  H   UNL     1      84.218 123.193 124.567  1.00  0.00     0.159 HD
ATOM     23  H   UNL     1      85.275 123.257 123.185  1.00  0.00     0.159 HD
ENDBRANCH   7  19
TORSDOF 1
ENDMDL
MODEL 11
REMARK VINA RESULT:    -8.024      2.574      4.194
REMARK INTER + INTRA:          -8.597
REMARK INTER:                  -8.477
REMARK INTRA:                  -0.119
REMARK UNBOUND:                -0.103
REMARK SMILES CN1C[C@H](C(N)=O)C=C2c3cccc4[nH]cc(c34)C[C@H]21
REMARK SMILES IDX 2 1 15 2 20 3 9 4 19 5 3 6 4 7 17 8 10 9 18 10 8 11 14 12
REMARK SMILES IDX 1 13 16 14 11 15 13 16 12 17 5 19 7 20 6 21
REMARK H PARENT 15 18 6 22 6 23
ROOT
ATOM      1  N   UNL     1      94.972 123.733 115.328  1.00  0.00    -0.298 NA
ATOM      2  N   UNL     1      91.396 122.534 120.013  1.00  0.00    -0.361 N 
ATOM      3  C   UNL     1      94.338 123.007 116.472  1.00  0.00     0.091 C 
ATOM      4  C   UNL     1      93.550 121.732 116.027  1.00  0.00    -0.026 C 
ATOM      5  C   UNL     1      93.455 124.005 117.317  1.00  0.00     0.061 C 
ATOM      6  C   UNL     1      95.564 122.773 114.373  1.00  0.00     0.102 C 
ATOM      7  C   UNL     1      94.477 121.900 113.722  1.00  0.00     0.115 C 
ATOM      8  C   UNL     1      92.637 123.272 118.325  1.00  0.00    -0.020 A 
ATOM      9  C   UNL     1      92.718 121.070 117.059  1.00  0.00    -0.011 A 
ATOM     10  C   UNL     1      92.341 121.908 118.115  1.00  0.00     0.010 A 
ATOM     11  C   UNL     1      93.598 121.260 114.767  1.00  0.00    -0.007 C 
ATOM     12  C   UNL     1      91.569 121.455 119.172  1.00  0.00     0.046 A 
ATOM     13  C   UNL     1      96.011 124.660 115.787  1.00  0.00     0.106 C 
ATOM     14  C   UNL     1      92.041 123.644 119.507  1.00  0.00     0.087 A 
ATOM     15  C   UNL     1      92.284 119.740 117.111  1.00  0.00     0.009 A 
ATOM     16  C   UNL     1      91.124 120.133 119.235  1.00  0.00     0.027 A 
ATOM     17  C   UNL     1      91.501 119.285 118.181  1.00  0.00     0.003 A 
ATOM     18  H   UNL     1      90.869 122.510 120.874  1.00  0.00     0.166 HD
ENDROOT
BRANCH   7  19
ATOM     19  C   UNL     1      95.128 120.823 112.851  1.00  0.00     0.225 C 
ATOM     20  O   UNL     1      95.038 120.758 111.629  1.00  0.00    -0.275 OA
ATOM     21  N   UNL     1      95.860 119.889 113.535  1.00  0.00    -0.369 N 
ATOM     22  H   UNL     1      96.266 119.133 113.000  1.00  0.00     0.159 HD
ATOM     23  H   UNL     1      95.856 119.827 114.543  1.00  0.00     0.159 HD
ENDBRANCH   7  19
TORSDOF 1
ENDMDL
MODEL 12
REMARK VINA RESULT:    -8.003      2.792      5.269
REMARK INTER + INTRA:          -8.574
REMARK INTER:                  -8.468
REMARK INTRA:                  -0.106
REMARK UNBOUND:                -0.103
REMARK SMILES CN1C[C@H](C(N)=O)C=C2c3cccc4[nH]cc(c34)C[C@H]21
REMARK SMILES IDX 2 1 15 2 20 3 9 4 19 5 3 6 4 7 17 8 10 9 18 10 8 11 14 12
REMARK SMILES IDX 1 13 16 14 11 15 13 16 12 17 5 19 7 20 6 21
REMARK H PARENT 15 18 6 22 6 23
ROOT
ATOM      1  N   UNL     1      91.244 120.949 120.466  1.00  0.00    -0.298 NA
ATOM      2  N   UNL     1      94.360 120.172 115.380  1.00  0.00    -0.361 N 
ATOM      3  C   UNL     1      92.304 121.101 119.420  1.00  0.00     0.091 C 
ATOM      4  C   UNL     1      92.322 122.523 118.769  1.00  0.00    -0.026 C 
ATOM      5  C   UNL     1      92.176 119.945 118.354  1.00  0.00     0.061 C 
ATOM      6  C   UNL     1      91.167 122.165 121.302  1.00  0.00     0.102 C 
ATOM      7  C   UNL     1      90.718 123.379 120.470  1.00  0.00     0.115 C 
ATOM      8  C   UNL     1      93.068 120.194 117.187  1.00  0.00    -0.020 A 
ATOM      9  C   UNL     1      93.192 122.701 117.583  1.00  0.00    -0.011 A 
ATOM     10  C   UNL     1      93.485 121.512 116.904  1.00  0.00     0.010 A 
ATOM     11  C   UNL     1      91.572 123.538 119.237  1.00  0.00    -0.007 C 
ATOM     12  C   UNL     1      94.291 121.490 115.778  1.00  0.00     0.046 A 
ATOM     13  C   UNL     1      91.498 119.788 121.324  1.00  0.00     0.106 C 
ATOM     14  C   UNL     1      93.621 119.376 116.229  1.00  0.00     0.087 A 
ATOM     15  C   UNL     1      93.754 123.881 117.080  1.00  0.00     0.009 A 
ATOM     16  C   UNL     1      94.853 122.659 115.261  1.00  0.00     0.027 A 
ATOM     17  C   UNL     1      94.568 123.855 115.940  1.00  0.00     0.003 A 
ATOM     18  H   UNL     1      94.879 119.842 114.578  1.00  0.00     0.166 HD
ENDROOT
BRANCH   7  19
ATOM     19  C   UNL     1      90.785 124.648 121.324  1.00  0.00     0.225 C 
ATOM     20  O   UNL     1      90.816 124.669 122.550  1.00  0.00    -0.275 OA
ATOM     21  N   UNL     1      90.818 125.820 120.617  1.00  0.00    -0.369 N 
ATOM     22  H   UNL     1      90.814 126.683 121.145  1.00  0.00     0.159 HD
ATOM     23  H   UNL     1      90.666 125.858 119.619  1.00  0.00     0.159 HD
ENDBRANCH   7  19
TORSDOF 1
ENDMDL
MODEL 13
REMARK VINA RESULT:    -7.935      3.069      6.567
REMARK INTER + INTRA:          -8.502
REMARK INTER:                  -8.387
REMARK INTRA:                  -0.115
REMARK UNBOUND:                -0.103
REMARK SMILES CN1C[C@H](C(N)=O)C=C2c3cccc4[nH]cc(c34)C[C@H]21
REMARK SMILES IDX 2 1 15 2 20 3 9 4 19 5 3 6 4 7 17 8 10 9 18 10 8 11 14 12
REMARK SMILES IDX 1 13 16 14 11 15 13 16 12 17 5 19 7 20 6 21
REMARK H PARENT 15 18 6 22 6 23
ROOT
ATOM      1  N   UNL     1      91.242 123.009 120.515  1.00  0.00    -0.298 NA
ATOM      2  N   UNL     1      94.822 123.146 115.684  1.00  0.00    -0.361 N 
ATOM      3  C   UNL     1      91.779 122.735 119.145  1.00  0.00     0.091 C 
ATOM      4  C   UNL     1      92.182 121.239 118.933  1.00  0.00    -0.026 C 
ATOM      5  C   UNL     1      92.955 123.735 118.821  1.00  0.00     0.061 C 
ATOM      6  C   UNL     1      90.346 121.915 120.946  1.00  0.00     0.102 C 
ATOM      7  C   UNL     1      91.119 120.593 121.090  1.00  0.00     0.115 C 
ATOM      8  C   UNL     1      93.654 123.346 117.563  1.00  0.00    -0.020 A 
ATOM      9  C   UNL     1      92.915 120.917 117.687  1.00  0.00    -0.011 A 
ATOM     10  C   UNL     1      93.582 122.009 117.117  1.00  0.00     0.010 A 
ATOM     11  C   UNL     1      91.903 120.284 119.840  1.00  0.00    -0.007 C 
ATOM     12  C   UNL     1      94.311 121.892 115.946  1.00  0.00     0.046 A 
ATOM     13  C   UNL     1      90.512 124.279 120.564  1.00  0.00     0.106 C 
ATOM     14  C   UNL     1      94.430 124.037 116.661  1.00  0.00     0.087 A 
ATOM     15  C   UNL     1      93.008 119.690 117.019  1.00  0.00     0.009 A 
ATOM     16  C   UNL     1      94.418 120.674 115.271  1.00  0.00     0.027 A 
ATOM     17  C   UNL     1      93.748 119.577 115.834  1.00  0.00     0.003 A 
ATOM     18  H   UNL     1      95.403 123.373 114.890  1.00  0.00     0.166 HD
ENDROOT
BRANCH   7  19
ATOM     19  C   UNL     1      90.144 119.452 121.396  1.00  0.00     0.225 C 
ATOM     20  O   UNL     1      89.224 119.511 122.204  1.00  0.00    -0.275 OA
ATOM     21  N   UNL     1      90.356 118.304 120.680  1.00  0.00    -0.369 N 
ATOM     22  H   UNL     1      89.763 117.510 120.887  1.00  0.00     0.159 HD
ATOM     23  H   UNL     1      91.173 118.165 120.102  1.00  0.00     0.159 HD
ENDBRANCH   7  19
TORSDOF 1
ENDMDL
MODEL 14
REMARK VINA RESULT:    -7.916      1.907      3.450
REMARK INTER + INTRA:          -8.482
REMARK INTER:                  -8.359
REMARK INTRA:                  -0.122
REMARK UNBOUND:                -0.103
REMARK SMILES CN1C[C@H](C(N)=O)C=C2c3cccc4[nH]cc(c34)C[C@H]21
REMARK SMILES IDX 2 1 15 2 20 3 9 4 19 5 3 6 4 7 17 8 10 9 18 10 8 11 14 12
REMARK SMILES IDX 1 13 16 14 11 15 13 16 12 17 5 19 7 20 6 21
REMARK H PARENT 15 18 6 22 6 23
ROOT
ATOM      1  N   UNL     1      94.495 124.859 117.323  1.00  0.00    -0.298 NA
ATOM      2  N   UNL     1      90.996 120.614 119.755  1.00  0.00    -0.361 N 
ATOM      3  C   UNL     1      93.968 123.513 117.712  1.00  0.00     0.091 C 
ATOM      4  C   UNL     1      93.506 122.659 116.487  1.00  0.00    -0.026 C 
ATOM      5  C   UNL     1      92.840 123.675 118.803  1.00  0.00     0.061 C 
ATOM      6  C   UNL     1      95.338 124.752 116.114  1.00  0.00     0.102 C 
ATOM      7  C   UNL     1      94.509 124.297 114.902  1.00  0.00     0.115 C 
ATOM      8  C   UNL     1      92.144 122.379 119.046  1.00  0.00    -0.020 A 
ATOM      9  C   UNL     1      92.779 121.404 116.786  1.00  0.00    -0.011 A 
ATOM     10  C   UNL     1      92.166 121.384 118.046  1.00  0.00     0.010 A 
ATOM     11  C   UNL     1      93.730 123.044 115.216  1.00  0.00    -0.007 C 
ATOM     12  C   UNL     1      91.451 120.287 118.495  1.00  0.00     0.046 A 
ATOM     13  C   UNL     1      95.277 125.464 118.405  1.00  0.00     0.106 C 
ATOM     14  C   UNL     1      91.412 121.883 120.100  1.00  0.00     0.087 A 
ATOM     15  C   UNL     1      92.644 120.260 115.990  1.00  0.00     0.009 A 
ATOM     16  C   UNL     1      91.302 119.141 117.711  1.00  0.00     0.027 A 
ATOM     17  C   UNL     1      91.917 119.153 116.449  1.00  0.00     0.003 A 
ATOM     18  H   UNL     1      90.437 120.008 120.338  1.00  0.00     0.166 HD
ENDROOT
BRANCH   7  19
ATOM     19  C   UNL     1      95.430 124.057 113.702  1.00  0.00     0.225 C 
ATOM     20  O   UNL     1      95.704 124.893 112.849  1.00  0.00    -0.275 OA
ATOM     21  N   UNL     1      95.966 122.799 113.628  1.00  0.00    -0.369 N 
ATOM     22  H   UNL     1      96.542 122.585 112.823  1.00  0.00     0.159 HD
ATOM     23  H   UNL     1      95.669 122.044 114.230  1.00  0.00     0.159 HD
ENDBRANCH   7  19
TORSDOF 1
ENDMDL
MODEL 15
REMARK VINA RESULT:    -7.849      6.736      9.401
REMARK INTER + INTRA:          -8.411
REMARK INTER:                  -8.305
REMARK INTRA:                  -0.106
REMARK UNBOUND:                -0.103
REMARK SMILES CN1C[C@H](C(N)=O)C=C2c3cccc4[nH]cc(c34)C[C@H]21
REMARK SMILES IDX 2 1 15 2 20 3 9 4 19 5 3 6 4 7 17 8 10 9 18 10 8 11 14 12
REMARK SMILES IDX 1 13 16 14 11 15 13 16 12 17 5 19 7 20 6 21
REMARK H PARENT 15 18 6 22 6 23
ROOT
ATOM      1  N   UNL     1      90.471 120.051 121.091  1.00  0.00    -0.298 NA
ATOM      2  N   UNL     1      89.749 125.544 123.430  1.00  0.00    -0.361 N 
ATOM      3  C   UNL     1      90.208 121.142 122.080  1.00  0.00     0.091 C 
ATOM      4  C   UNL     1      88.747 121.125 122.637  1.00  0.00    -0.026 C 
ATOM      5  C   UNL     1      90.606 122.536 121.458  1.00  0.00     0.061 C 
ATOM      6  C   UNL     1      89.847 118.788 121.538  1.00  0.00     0.102 C 
ATOM      7  C   UNL     1      88.314 118.913 121.578  1.00  0.00     0.115 C 
ATOM      8  C   UNL     1      90.151 123.658 122.328  1.00  0.00    -0.020 A 
ATOM      9  C   UNL     1      88.334 122.287 123.458  1.00  0.00    -0.011 A 
ATOM     10  C   UNL     1      89.082 123.448 123.224  1.00  0.00     0.010 A 
ATOM     11  C   UNL     1      87.889 120.121 122.374  1.00  0.00    -0.007 C 
ATOM     12  C   UNL     1      88.838 124.627 123.909  1.00  0.00     0.046 A 
ATOM     13  C   UNL     1      91.907 119.836 120.894  1.00  0.00     0.106 C 
ATOM     14  C   UNL     1      90.552 124.966 122.469  1.00  0.00     0.087 A 
ATOM     15  C   UNL     1      87.322 122.360 124.423  1.00  0.00     0.009 A 
ATOM     16  C   UNL     1      87.829 124.717 124.869  1.00  0.00     0.027 A 
ATOM     17  C   UNL     1      87.078 123.556 125.112  1.00  0.00     0.003 A 
ATOM     18  H   UNL     1      89.814 126.503 123.741  1.00  0.00     0.166 HD
ENDROOT
BRANCH   7  19
ATOM     19  C   UNL     1      87.704 117.645 122.180  1.00  0.00     0.225 C 
ATOM     20  O   UNL     1      86.822 117.625 123.031  1.00  0.00    -0.275 OA
ATOM     21  N   UNL     1      88.213 116.471 121.692  1.00  0.00    -0.369 N 
ATOM     22  H   UNL     1      87.870 115.610 122.099  1.00  0.00     0.159 HD
ATOM     23  H   UNL     1      89.024 116.437 121.091  1.00  0.00     0.159 HD
ENDBRANCH   7  19
TORSDOF 1
ENDMDL
MODEL 16
REMARK VINA RESULT:    -7.825      2.124      3.372
REMARK INTER + INTRA:          -8.386
REMARK INTER:                  -8.291
REMARK INTRA:                  -0.095
REMARK UNBOUND:                -0.103
REMARK SMILES CN1C[C@H](C(N)=O)C=C2c3cccc4[nH]cc(c34)C[C@H]21
REMARK SMILES IDX 2 1 15 2 20 3 9 4 19 5 3 6 4 7 17 8 10 9 18 10 8 11 14 12
REMARK SMILES IDX 1 13 16 14 11 15 13 16 12 17 5 19 7 20 6 21
REMARK H PARENT 15 18 6 22 6 23
ROOT
ATOM      1  N   UNL     1      93.903 120.768 116.888  1.00  0.00    -0.298 NA
ATOM      2  N   UNL     1      90.897 120.191 122.065  1.00  0.00    -0.361 N 
ATOM      3  C   UNL     1      92.831 120.907 117.923  1.00  0.00     0.091 C 
ATOM      4  C   UNL     1      92.640 122.379 118.413  1.00  0.00    -0.026 C 
ATOM      5  C   UNL     1      93.098 119.900 119.108  1.00  0.00     0.061 C 
ATOM      6  C   UNL     1      93.834 121.885 115.922  1.00  0.00     0.102 C 
ATOM      7  C   UNL     1      94.131 123.228 116.608  1.00  0.00     0.115 C 
ATOM      8  C   UNL     1      92.180 120.168 120.252  1.00  0.00    -0.020 A 
ATOM      9  C   UNL     1      91.753 122.582 119.582  1.00  0.00    -0.011 A 
ATOM     10  C   UNL     1      91.606 121.449 120.392  1.00  0.00     0.010 A 
ATOM     11  C   UNL     1      93.262 123.420 117.826  1.00  0.00    -0.007 C 
ATOM     12  C   UNL     1      90.806 121.455 121.523  1.00  0.00     0.046 A 
ATOM     13  C   UNL     1      93.794 119.497 116.166  1.00  0.00     0.106 C 
ATOM     14  C   UNL     1      91.729 119.400 121.301  1.00  0.00     0.087 A 
ATOM     15  C   UNL     1      91.051 123.734 119.958  1.00  0.00     0.009 A 
ATOM     16  C   UNL     1      90.105 122.598 121.915  1.00  0.00     0.027 A 
ATOM     17  C   UNL     1      90.245 123.736 121.105  1.00  0.00     0.003 A 
ATOM     18  H   UNL     1      90.421 119.892 122.905  1.00  0.00     0.166 HD
ENDROOT
BRANCH   7  19
ATOM     19  C   UNL     1      93.911 124.377 115.620  1.00  0.00     0.225 C 
ATOM     20  O   UNL     1      93.066 124.388 114.731  1.00  0.00    -0.275 OA
ATOM     21  N   UNL     1      94.742 125.452 115.789  1.00  0.00    -0.369 N 
ATOM     22  H   UNL     1      94.662 126.212 115.126  1.00  0.00     0.159 HD
ATOM     23  H   UNL     1      95.532 125.436 116.419  1.00  0.00     0.159 HD
ENDBRANCH   7  19
TORSDOF 1
ENDMDL
MODEL 17
REMARK VINA RESULT:    -7.775      5.551      7.813
REMARK INTER + INTRA:          -8.333
REMARK INTER:                  -8.210
REMARK INTRA:                  -0.123
REMARK UNBOUND:                -0.103
REMARK SMILES CN1C[C@H](C(N)=O)C=C2c3cccc4[nH]cc(c34)C[C@H]21
REMARK SMILES IDX 2 1 15 2 20 3 9 4 19 5 3 6 4 7 17 8 10 9 18 10 8 11 14 12
REMARK SMILES IDX 1 13 16 14 11 15 13 16 12 17 5 19 7 20 6 21
REMARK H PARENT 15 18 6 22 6 23
ROOT
ATOM      1  N   UNL     1      87.689 122.943 123.572  1.00  0.00    -0.298 NA
ATOM      2  N   UNL     1      90.371 118.336 120.787  1.00  0.00    -0.361 N 
ATOM      3  C   UNL     1      88.754 122.004 123.097  1.00  0.00     0.091 C 
ATOM      4  C   UNL     1      89.800 122.690 122.159  1.00  0.00    -0.026 C 
ATOM      5  C   UNL     1      88.092 120.730 122.444  1.00  0.00     0.061 C 
ATOM      6  C   UNL     1      88.276 124.253 123.923  1.00  0.00     0.102 C 
ATOM      7  C   UNL     1      88.872 124.940 122.682  1.00  0.00     0.115 C 
ATOM      8  C   UNL     1      89.116 119.886 121.765  1.00  0.00    -0.020 A 
ATOM      9  C   UNL     1      90.765 121.798 121.474  1.00  0.00    -0.011 A 
ATOM     10  C   UNL     1      90.328 120.474 121.345  1.00  0.00     0.010 A 
ATOM     11  C   UNL     1      89.821 124.021 121.955  1.00  0.00    -0.007 C 
ATOM     12  C   UNL     1      91.106 119.502 120.738  1.00  0.00     0.046 A 
ATOM     13  C   UNL     1      86.978 122.406 124.736  1.00  0.00     0.106 C 
ATOM     14  C   UNL     1      89.160 118.558 121.409  1.00  0.00     0.087 A 
ATOM     15  C   UNL     1      92.032 122.108 120.966  1.00  0.00     0.009 A 
ATOM     16  C   UNL     1      92.369 119.795 120.221  1.00  0.00     0.027 A 
ATOM     17  C   UNL     1      92.815 121.121 120.351  1.00  0.00     0.003 A 
ATOM     18  H   UNL     1      90.680 117.448 120.417  1.00  0.00     0.166 HD
ENDROOT
BRANCH   7  19
ATOM     19  C   UNL     1      89.598 126.223 123.097  1.00  0.00     0.225 C 
ATOM     20  O   UNL     1      89.188 127.361 122.891  1.00  0.00    -0.275 OA
ATOM     21  N   UNL     1      90.786 126.030 123.750  1.00  0.00    -0.369 N 
ATOM     22  H   UNL     1      91.320 126.854 123.998  1.00  0.00     0.159 HD
ATOM     23  H   UNL     1      91.224 125.123 123.827  1.00  0.00     0.159 HD
ENDBRANCH   7  19
TORSDOF 1
ENDMDL
MODEL 18
REMARK VINA RESULT:    -7.727      2.979      5.400
REMARK INTER + INTRA:          -8.282
REMARK INTER:                  -8.165
REMARK INTRA:                  -0.117
REMARK UNBOUND:                -0.103
REMARK SMILES CN1C[C@H](C(N)=O)C=C2c3cccc4[nH]cc(c34)C[C@H]21
REMARK SMILES IDX 2 1 15 2 20 3 9 4 19 5 3 6 4 7 17 8 10 9 18 10 8 11 14 12
REMARK SMILES IDX 1 13 16 14 11 15 13 16 12 17 5 19 7 20 6 21
REMARK H PARENT 15 18 6 22 6 23
ROOT
ATOM      1  N   UNL     1      93.203 123.214 117.900  1.00  0.00    -0.298 NA
ATOM      2  N   UNL     1      89.477 122.529 122.571  1.00  0.00    -0.361 N 
ATOM      3  C   UNL     1      92.567 122.645 119.130  1.00  0.00     0.091 C 
ATOM      4  C   UNL     1      91.918 121.243 118.890  1.00  0.00    -0.026 C 
ATOM      5  C   UNL     1      91.556 123.689 119.742  1.00  0.00     0.061 C 
ATOM      6  C   UNL     1      93.929 122.160 117.160  1.00  0.00     0.102 C 
ATOM      7  C   UNL     1      92.959 121.089 116.633  1.00  0.00     0.115 C 
ATOM      8  C   UNL     1      90.746 123.072 120.831  1.00  0.00    -0.020 A 
ATOM      9  C   UNL     1      91.086 120.698 119.988  1.00  0.00    -0.011 A 
ATOM     10  C   UNL     1      90.579 121.671 120.859  1.00  0.00     0.010 A 
ATOM     11  C   UNL     1      92.078 120.563 117.739  1.00  0.00    -0.007 C 
ATOM     12  C   UNL     1      89.789 121.340 121.947  1.00  0.00     0.046 A 
ATOM     13  C   UNL     1      94.132 124.300 118.227  1.00  0.00     0.106 C 
ATOM     14  C   UNL     1      90.053 123.588 121.901  1.00  0.00     0.087 A 
ATOM     15  C   UNL     1      90.765 119.363 120.261  1.00  0.00     0.009 A 
ATOM     16  C   UNL     1      89.454 120.014 122.230  1.00  0.00     0.027 A 
ATOM     17  C   UNL     1      89.962 119.033 121.363  1.00  0.00     0.003 A 
ATOM     18  H   UNL     1      88.905 122.608 123.399  1.00  0.00     0.166 HD
ENDROOT
BRANCH   7  19
ATOM     19  C   UNL     1      93.748 119.940 115.998  1.00  0.00     0.225 C 
ATOM     20  O   UNL     1      94.549 120.062 115.078  1.00  0.00    -0.275 OA
ATOM     21  N   UNL     1      93.509 118.705 116.540  1.00  0.00    -0.369 N 
ATOM     22  H   UNL     1      93.974 117.913 116.116  1.00  0.00     0.159 HD
ATOM     23  H   UNL     1      92.768 118.538 117.206  1.00  0.00     0.159 HD
ENDBRANCH   7  19
TORSDOF 1
ENDMDL
MODEL 19
REMARK VINA RESULT:    -7.537      3.287      5.633
REMARK INTER + INTRA:          -8.081
REMARK INTER:                  -7.960
REMARK INTRA:                  -0.122
REMARK UNBOUND:                -0.103
REMARK SMILES CN1C[C@H](C(N)=O)C=C2c3cccc4[nH]cc(c34)C[C@H]21
REMARK SMILES IDX 2 1 15 2 20 3 9 4 19 5 3 6 4 7 17 8 10 9 18 10 8 11 14 12
REMARK SMILES IDX 1 13 16 14 11 15 13 16 12 17 5 19 7 20 6 21
REMARK H PARENT 15 18 6 22 6 23
ROOT
ATOM      1  N   UNL     1      91.436 119.653 118.337  1.00  0.00    -0.298 NA
ATOM      2  N   UNL     1      87.848 120.309 123.119  1.00  0.00    -0.361 N 
ATOM      3  C   UNL     1      90.467 120.256 119.305  1.00  0.00     0.091 C 
ATOM      4  C   UNL     1      91.031 121.522 120.028  1.00  0.00    -0.026 C 
ATOM      5  C   UNL     1      89.961 119.153 120.314  1.00  0.00     0.061 C 
ATOM      6  C   UNL     1      92.131 120.712 117.576  1.00  0.00     0.102 C 
ATOM      7  C   UNL     1      92.999 121.580 118.503  1.00  0.00     0.115 C 
ATOM      8  C   UNL     1      89.173 119.765 121.421  1.00  0.00    -0.020 A 
ATOM      9  C   UNL     1      90.229 122.061 121.150  1.00  0.00    -0.011 A 
ATOM     10  C   UNL     1      89.370 121.125 121.741  1.00  0.00     0.010 A 
ATOM     11  C   UNL     1      92.198 122.093 119.673  1.00  0.00    -0.007 C 
ATOM     12  C   UNL     1      88.540 121.457 122.799  1.00  0.00     0.046 A 
ATOM     13  C   UNL     1      90.768 118.744 117.401  1.00  0.00     0.106 C 
ATOM     14  C   UNL     1      88.225 119.274 122.289  1.00  0.00     0.087 A 
ATOM     15  C   UNL     1      90.216 123.361 121.671  1.00  0.00     0.009 A 
ATOM     16  C   UNL     1      88.520 122.747 123.333  1.00  0.00     0.027 A 
ATOM     17  C   UNL     1      89.375 123.692 122.743  1.00  0.00     0.003 A 
ATOM     18  H   UNL     1      87.165 120.240 123.860  1.00  0.00     0.166 HD
ENDROOT
BRANCH   7  19
ATOM     19  C   UNL     1      93.590 122.752 117.715  1.00  0.00     0.225 C 
ATOM     20  O   UNL     1      94.447 122.652 116.843  1.00  0.00    -0.275 OA
ATOM     21  N   UNL     1      93.085 123.982 118.042  1.00  0.00    -0.369 N 
ATOM     22  H   UNL     1      93.484 124.788 117.578  1.00  0.00     0.159 HD
ATOM     23  H   UNL     1      92.477 124.127 118.836  1.00  0.00     0.159 HD
ENDBRANCH   7  19
TORSDOF 1
ENDMDL
