MODEL 1
REMARK VINA RESULT:    -9.013      0.000      0.000
REMARK INTER + INTRA:          -9.640
REMARK INTER:                  -9.540
REMARK INTRA:                  -0.100
REMARK UNBOUND:                -0.100
REMARK SMILES CN1C[C@H](C(N)=O)C=C2c3cccc4[nH]cc(c34)C[C@H]21
REMARK SMILES IDX 2 1 15 2 20 3 9 4 19 5 3 6 4 7 17 8 10 9 18 10 8 11 14 12
REMARK SMILES IDX 1 13 16 14 11 15 13 16 12 17 5 19 7 20 6 21
REMARK H PARENT 15 18 6 22 6 23
ROOT
ATOM      1  N   UNL     1      38.202  26.728  56.243  1.00  0.00    -0.298 NA
ATOM      2  N   UNL     1      38.602  31.562  59.799  1.00  0.00    -0.361 N 
ATOM      3  C   UNL     1      38.002  28.113  56.773  1.00  0.00     0.091 C 
ATOM      4  C   UNL     1      38.599  29.217  55.841  1.00  0.00    -0.026 C 
ATOM      5  C   UNL     1      38.546  28.205  58.251  1.00  0.00     0.061 C 
ATOM      6  C   UNL     1      37.966  26.695  54.784  1.00  0.00     0.102 C 
ATOM      7  C   UNL     1      39.005  27.549  54.038  1.00  0.00     0.115 C 
ATOM      8  C   UNL     1      38.567  29.618  58.725  1.00  0.00    -0.020 A 
ATOM      9  C   UNL     1      38.635  30.596  56.381  1.00  0.00    -0.011 A 
ATOM     10  C   UNL     1      38.613  30.664  57.780  1.00  0.00     0.010 A 
ATOM     11  C   UNL     1      39.079  28.940  54.614  1.00  0.00    -0.007 C 
ATOM     12  C   UNL     1      38.634  31.872  58.456  1.00  0.00     0.046 A 
ATOM     13  C   UNL     1      37.310  25.767  56.898  1.00  0.00     0.106 C 
ATOM     14  C   UNL     1      38.562  30.195  59.974  1.00  0.00     0.087 A 
ATOM     15  C   UNL     1      38.675  31.809  55.681  1.00  0.00     0.009 A 
ATOM     16  C   UNL     1      38.680  33.090  57.773  1.00  0.00     0.027 A 
ATOM     17  C   UNL     1      38.698  33.029  56.370  1.00  0.00     0.003 A 
ATOM     18  H   UNL     1      38.611  32.244  60.544  1.00  0.00     0.166 HD
ENDROOT
BRANCH   7  19
ATOM     19  C   UNL     1      38.651  27.614  52.549  1.00  0.00     0.225 C 
ATOM     20  O   UNL     1      37.566  27.964  52.099  1.00  0.00    -0.275 OA
ATOM     21  N   UNL     1      39.661  27.248  51.699  1.00  0.00    -0.369 N 
ATOM     22  H   UNL     1      39.453  27.231  50.709  1.00  0.00     0.159 HD
ATOM     23  H   UNL     1      40.522  26.832  52.024  1.00  0.00     0.159 HD
ENDBRANCH   7  19
TORSDOF 1
ENDMDL
MODEL 2
REMARK VINA RESULT:    -8.533      2.056      3.669
REMARK INTER + INTRA:          -9.131
REMARK INTER:                  -9.012
REMARK INTRA:                  -0.119
REMARK UNBOUND:                -0.100
REMARK SMILES CN1C[C@H](C(N)=O)C=C2c3cccc4[nH]cc(c34)C[C@H]21
REMARK SMILES IDX 2 1 15 2 20 3 9 4 19 5 3 6 4 7 17 8 10 9 18 10 8 11 14 12
REMARK SMILES IDX 1 13 16 14 11 15 13 16 12 17 5 19 7 20 6 21
REMARK H PARENT 15 18 6 22 6 23
ROOT
ATOM      1  N   UNL     1      38.648  27.447  54.070  1.00  0.00    -0.298 NA
ATOM      2  N   UNL     1      38.393  33.050  56.241  1.00  0.00    -0.361 N 
ATOM      3  C   UNL     1      38.925  28.649  54.918  1.00  0.00     0.091 C 
ATOM      4  C   UNL     1      38.504  28.454  56.411  1.00  0.00    -0.026 C 
ATOM      5  C   UNL     1      38.276  29.929  54.263  1.00  0.00     0.061 C 
ATOM      6  C   UNL     1      38.995  26.210  54.799  1.00  0.00     0.102 C 
ATOM      7  C   UNL     1      38.097  26.027  56.035  1.00  0.00     0.115 C 
ATOM      8  C   UNL     1      38.343  31.094  55.190  1.00  0.00    -0.020 A 
ATOM      9  C   UNL     1      38.546  29.656  57.276  1.00  0.00    -0.011 A 
ATOM     10  C   UNL     1      38.463  30.867  56.578  1.00  0.00     0.010 A 
ATOM     11  C   UNL     1      38.099  27.265  56.896  1.00  0.00    -0.007 C 
ATOM     12  C   UNL     1      38.495  32.091  57.226  1.00  0.00     0.046 A 
ATOM     13  C   UNL     1      39.397  27.492  52.811  1.00  0.00     0.106 C 
ATOM     14  C   UNL     1      38.299  32.456  55.000  1.00  0.00     0.087 A 
ATOM     15  C   UNL     1      38.668  29.727  58.669  1.00  0.00     0.009 A 
ATOM     16  C   UNL     1      38.610  32.178  58.615  1.00  0.00     0.027 A 
ATOM     17  C   UNL     1      38.698  30.968  59.321  1.00  0.00     0.003 A 
ATOM     18  H   UNL     1      38.385  34.046  56.410  1.00  0.00     0.166 HD
ENDROOT
BRANCH   7  19
ATOM     19  C   UNL     1      38.571  24.820  56.848  1.00  0.00     0.225 C 
ATOM     20  O   UNL     1      37.917  23.801  57.040  1.00  0.00    -0.275 OA
ATOM     21  N   UNL     1      39.831  24.935  57.373  1.00  0.00    -0.369 N 
ATOM     22  H   UNL     1      40.163  24.178  57.958  1.00  0.00     0.159 HD
ATOM     23  H   UNL     1      40.353  25.799  57.351  1.00  0.00     0.159 HD
ENDBRANCH   7  19
TORSDOF 1
ENDMDL
MODEL 3
REMARK VINA RESULT:    -8.467      2.402      5.544
REMARK INTER + INTRA:          -9.062
REMARK INTER:                  -8.953
REMARK INTRA:                  -0.109
REMARK UNBOUND:                -0.100
REMARK SMILES CN1C[C@H](C(N)=O)C=C2c3cccc4[nH]cc(c34)C[C@H]21
REMARK SMILES IDX 2 1 15 2 20 3 9 4 19 5 3 6 4 7 17 8 10 9 18 10 8 11 14 12
REMARK SMILES IDX 1 13 16 14 11 15 13 16 12 17 5 19 7 20 6 21
REMARK H PARENT 15 18 6 22 6 23
ROOT
ATOM      1  N   UNL     1      38.513  28.011  57.741  1.00  0.00    -0.298 NA
ATOM      2  N   UNL     1      39.424  26.983  51.885  1.00  0.00    -0.361 N 
ATOM      3  C   UNL     1      39.088  28.102  56.362  1.00  0.00     0.091 C 
ATOM      4  C   UNL     1      38.861  29.498  55.695  1.00  0.00    -0.026 C 
ATOM      5  C   UNL     1      38.553  26.911  55.478  1.00  0.00     0.061 C 
ATOM      6  C   UNL     1      38.770  29.259  58.490  1.00  0.00     0.102 C 
ATOM      7  C   UNL     1      38.042  30.450  57.845  1.00  0.00     0.115 C 
ATOM      8  C   UNL     1      38.928  27.098  54.048  1.00  0.00    -0.020 A 
ATOM      9  C   UNL     1      39.208  29.615  54.260  1.00  0.00    -0.011 A 
ATOM     10  C   UNL     1      39.210  28.396  53.571  1.00  0.00     0.010 A 
ATOM     11  C   UNL     1      38.355  30.546  56.374  1.00  0.00    -0.007 C 
ATOM     12  C   UNL     1      39.520  28.316  52.224  1.00  0.00     0.046 A 
ATOM     13  C   UNL     1      39.071  26.878  58.484  1.00  0.00     0.106 C 
ATOM     14  C   UNL     1      39.064  26.233  52.986  1.00  0.00     0.087 A 
ATOM     15  C   UNL     1      39.539  30.764  53.531  1.00  0.00     0.009 A 
ATOM     16  C   UNL     1      39.846  29.453  51.481  1.00  0.00     0.027 A 
ATOM     17  C   UNL     1      39.850  30.678  52.167  1.00  0.00     0.003 A 
ATOM     18  H   UNL     1      39.592  26.613  50.961  1.00  0.00     0.166 HD
ENDROOT
BRANCH   7  19
ATOM     19  C   UNL     1      38.439  31.748  58.554  1.00  0.00     0.225 C 
ATOM     20  O   UNL     1      38.822  31.826  59.716  1.00  0.00    -0.275 OA
ATOM     21  N   UNL     1      38.349  32.878  57.785  1.00  0.00    -0.369 N 
ATOM     22  H   UNL     1      38.557  33.762  58.230  1.00  0.00     0.159 HD
ATOM     23  H   UNL     1      37.919  32.881  56.871  1.00  0.00     0.159 HD
ENDBRANCH   7  19
TORSDOF 1
ENDMDL
MODEL 4
REMARK VINA RESULT:    -8.395      3.974      6.208
REMARK INTER + INTRA:          -8.985
REMARK INTER:                  -8.863
REMARK INTRA:                  -0.122
REMARK UNBOUND:                -0.100
REMARK SMILES CN1C[C@H](C(N)=O)C=C2c3cccc4[nH]cc(c34)C[C@H]21
REMARK SMILES IDX 2 1 15 2 20 3 9 4 19 5 3 6 4 7 17 8 10 9 18 10 8 11 14 12
REMARK SMILES IDX 1 13 16 14 11 15 13 16 12 17 5 19 7 20 6 21
REMARK H PARENT 15 18 6 22 6 23
ROOT
ATOM      1  N   UNL     1      40.090  31.163  61.079  1.00  0.00    -0.298 NA
ATOM      2  N   UNL     1      39.722  37.128  61.750  1.00  0.00    -0.361 N 
ATOM      3  C   UNL     1      39.514  32.532  61.264  1.00  0.00     0.091 C 
ATOM      4  C   UNL     1      38.631  32.992  60.058  1.00  0.00    -0.026 C 
ATOM      5  C   UNL     1      40.664  33.556  61.603  1.00  0.00     0.061 C 
ATOM      6  C   UNL     1      39.084  30.256  60.488  1.00  0.00     0.102 C 
ATOM      7  C   UNL     1      38.699  30.708  59.069  1.00  0.00     0.115 C 
ATOM      8  C   UNL     1      40.157  34.957  61.572  1.00  0.00    -0.020 A 
ATOM      9  C   UNL     1      38.193  34.407  60.056  1.00  0.00    -0.011 A 
ATOM     10  C   UNL     1      39.002  35.258  60.819  1.00  0.00     0.010 A 
ATOM     11  C   UNL     1      38.296  32.161  59.053  1.00  0.00    -0.007 C 
ATOM     12  C   UNL     1      38.736  36.612  60.937  1.00  0.00     0.046 A 
ATOM     13  C   UNL     1      40.560  30.600  62.349  1.00  0.00     0.106 C 
ATOM     14  C   UNL     1      40.591  36.132  62.142  1.00  0.00     0.087 A 
ATOM     15  C   UNL     1      37.090  34.980  59.411  1.00  0.00     0.009 A 
ATOM     16  C   UNL     1      37.644  37.199  60.295  1.00  0.00     0.027 A 
ATOM     17  C   UNL     1      36.826  36.351  59.531  1.00  0.00     0.003 A 
ATOM     18  H   UNL     1      39.794  38.100  62.017  1.00  0.00     0.166 HD
ENDROOT
BRANCH   7  19
ATOM     19  C   UNL     1      37.556  29.839  58.538  1.00  0.00     0.225 C 
ATOM     20  O   UNL     1      37.699  28.788  57.923  1.00  0.00    -0.275 OA
ATOM     21  N   UNL     1      36.299  30.312  58.804  1.00  0.00    -0.369 N 
ATOM     22  H   UNL     1      35.516  29.792  58.428  1.00  0.00     0.159 HD
ATOM     23  H   UNL     1      36.133  31.230  59.191  1.00  0.00     0.159 HD
ENDBRANCH   7  19
TORSDOF 1
ENDMDL
MODEL 5
REMARK VINA RESULT:    -8.354      2.889      6.663
REMARK INTER + INTRA:          -8.942
REMARK INTER:                  -8.839
REMARK INTRA:                  -0.103
REMARK UNBOUND:                -0.100
REMARK SMILES CN1C[C@H](C(N)=O)C=C2c3cccc4[nH]cc(c34)C[C@H]21
REMARK SMILES IDX 2 1 15 2 20 3 9 4 19 5 3 6 4 7 17 8 10 9 18 10 8 11 14 12
REMARK SMILES IDX 1 13 16 14 11 15 13 16 12 17 5 19 7 20 6 21
REMARK H PARENT 15 18 6 22 6 23
ROOT
ATOM      1  N   UNL     1      39.043  30.431  58.308  1.00  0.00    -0.298 NA
ATOM      2  N   UNL     1      37.285  26.314  54.292  1.00  0.00    -0.361 N 
ATOM      3  C   UNL     1      38.386  29.224  57.717  1.00  0.00     0.091 C 
ATOM      4  C   UNL     1      38.950  27.881  58.284  1.00  0.00    -0.026 C 
ATOM      5  C   UNL     1      38.450  29.295  56.142  1.00  0.00     0.061 C 
ATOM      6  C   UNL     1      39.245  30.249  59.760  1.00  0.00     0.102 C 
ATOM      7  C   UNL     1      40.227  29.098  60.041  1.00  0.00     0.115 C 
ATOM      8  C   UNL     1      38.007  28.010  55.531  1.00  0.00    -0.020 A 
ATOM      9  C   UNL     1      38.511  26.637  57.610  1.00  0.00    -0.011 A 
ATOM     10  C   UNL     1      38.077  26.823  56.291  1.00  0.00     0.010 A 
ATOM     11  C   UNL     1      39.810  27.841  59.319  1.00  0.00    -0.007 C 
ATOM     12  C   UNL     1      37.624  25.771  55.513  1.00  0.00     0.046 A 
ATOM     13  C   UNL     1      38.250  31.643  58.079  1.00  0.00     0.106 C 
ATOM     14  C   UNL     1      37.514  27.674  54.292  1.00  0.00     0.087 A 
ATOM     15  C   UNL     1      38.466  25.334  58.121  1.00  0.00     0.009 A 
ATOM     16  C   UNL     1      37.579  24.465  56.006  1.00  0.00     0.027 A 
ATOM     17  C   UNL     1      38.009  24.272  57.329  1.00  0.00     0.003 A 
ATOM     18  H   UNL     1      36.923  25.785  53.511  1.00  0.00     0.166 HD
ENDROOT
BRANCH   7  19
ATOM     19  C   UNL     1      40.306  28.838  61.547  1.00  0.00     0.225 C 
ATOM     20  O   UNL     1      41.056  28.029  62.083  1.00  0.00    -0.275 OA
ATOM     21  N   UNL     1      39.460  29.598  62.311  1.00  0.00    -0.369 N 
ATOM     22  H   UNL     1      39.447  29.422  63.307  1.00  0.00     0.159 HD
ATOM     23  H   UNL     1      38.738  30.179  61.909  1.00  0.00     0.159 HD
ENDBRANCH   7  19
TORSDOF 1
ENDMDL
MODEL 6
REMARK VINA RESULT:    -8.348      6.530      8.437
REMARK INTER + INTRA:          -8.936
REMARK INTER:                  -8.819
REMARK INTRA:                  -0.117
REMARK UNBOUND:                -0.100
REMARK SMILES CN1C[C@H](C(N)=O)C=C2c3cccc4[nH]cc(c34)C[C@H]21
REMARK SMILES IDX 2 1 15 2 20 3 9 4 19 5 3 6 4 7 17 8 10 9 18 10 8 11 14 12
REMARK SMILES IDX 1 13 16 14 11 15 13 16 12 17 5 19 7 20 6 21
REMARK H PARENT 15 18 6 22 6 23
ROOT
ATOM      1  N   UNL     1      41.522  33.812  63.275  1.00  0.00    -0.298 NA
ATOM      2  N   UNL     1      38.346  38.409  61.049  1.00  0.00    -0.361 N 
ATOM      3  C   UNL     1      40.362  34.630  62.799  1.00  0.00     0.091 C 
ATOM      4  C   UNL     1      39.666  34.029  61.535  1.00  0.00    -0.026 C 
ATOM      5  C   UNL     1      40.812  36.128  62.593  1.00  0.00     0.061 C 
ATOM      6  C   UNL     1      41.201  32.371  63.201  1.00  0.00     0.102 C 
ATOM      7  C   UNL     1      40.986  31.928  61.744  1.00  0.00     0.115 C 
ATOM      8  C   UNL     1      39.746  36.916  61.911  1.00  0.00    -0.020 A 
ATOM      9  C   UNL     1      38.647  34.874  60.871  1.00  0.00    -0.011 A 
ATOM     10  C   UNL     1      38.785  36.245  61.126  1.00  0.00     0.010 A 
ATOM     11  C   UNL     1      39.983  32.814  61.049  1.00  0.00    -0.007 C 
ATOM     12  C   UNL     1      37.915  37.181  60.594  1.00  0.00     0.046 A 
ATOM     13  C   UNL     1      41.894  34.154  64.651  1.00  0.00     0.106 C 
ATOM     14  C   UNL     1      39.458  38.260  61.850  1.00  0.00     0.087 A 
ATOM     15  C   UNL     1      37.583  34.479  60.051  1.00  0.00     0.009 A 
ATOM     16  C   UNL     1      36.852  36.804  59.770  1.00  0.00     0.027 A 
ATOM     17  C   UNL     1      36.706  35.431  59.512  1.00  0.00     0.003 A 
ATOM     18  H   UNL     1      37.907  39.290  60.822  1.00  0.00     0.166 HD
ENDROOT
BRANCH   7  19
ATOM     19  C   UNL     1      40.515  30.471  61.708  1.00  0.00     0.225 C 
ATOM     20  O   UNL     1      40.995  29.595  60.997  1.00  0.00    -0.275 OA
ATOM     21  N   UNL     1      39.481  30.176  62.556  1.00  0.00    -0.369 N 
ATOM     22  H   UNL     1      39.109  29.236  62.528  1.00  0.00     0.159 HD
ATOM     23  H   UNL     1      38.972  30.888  63.061  1.00  0.00     0.159 HD
ENDBRANCH   7  19
TORSDOF 1
ENDMDL
MODEL 7
REMARK VINA RESULT:    -8.303      5.562      7.949
REMARK INTER + INTRA:          -8.888
REMARK INTER:                  -8.783
REMARK INTRA:                  -0.105
REMARK UNBOUND:                -0.100
REMARK SMILES CN1C[C@H](C(N)=O)C=C2c3cccc4[nH]cc(c34)C[C@H]21
REMARK SMILES IDX 2 1 15 2 20 3 9 4 19 5 3 6 4 7 17 8 10 9 18 10 8 11 14 12
REMARK SMILES IDX 1 13 16 14 11 15 13 16 12 17 5 19 7 20 6 21
REMARK H PARENT 15 18 6 22 6 23
ROOT
ATOM      1  N   UNL     1      39.798  35.232  61.925  1.00  0.00    -0.298 NA
ATOM      2  N   UNL     1      41.699  29.607  62.885  1.00  0.00    -0.361 N 
ATOM      3  C   UNL     1      40.229  33.822  61.668  1.00  0.00     0.091 C 
ATOM      4  C   UNL     1      39.090  32.933  61.069  1.00  0.00    -0.026 C 
ATOM      5  C   UNL     1      40.859  33.207  62.976  1.00  0.00     0.061 C 
ATOM      6  C   UNL     1      38.957  35.725  60.814  1.00  0.00     0.102 C 
ATOM      7  C   UNL     1      37.644  34.930  60.720  1.00  0.00     0.115 C 
ATOM      8  C   UNL     1      41.092  31.743  62.819  1.00  0.00    -0.020 A 
ATOM      9  C   UNL     1      39.359  31.480  60.978  1.00  0.00    -0.011 A 
ATOM     10  C   UNL     1      40.342  31.022  61.865  1.00  0.00     0.010 A 
ATOM     11  C   UNL     1      37.910  33.446  60.673  1.00  0.00    -0.007 C 
ATOM     12  C   UNL     1      40.726  29.693  61.911  1.00  0.00     0.046 A 
ATOM     13  C   UNL     1      40.948  36.125  62.094  1.00  0.00     0.106 C 
ATOM     14  C   UNL     1      41.929  30.847  63.443  1.00  0.00     0.087 A 
ATOM     15  C   UNL     1      38.775  30.534  60.126  1.00  0.00     0.009 A 
ATOM     16  C   UNL     1      40.150  28.737  61.072  1.00  0.00     0.027 A 
ATOM     17  C   UNL     1      39.167  29.189  60.177  1.00  0.00     0.003 A 
ATOM     18  H   UNL     1      42.171  28.754  63.150  1.00  0.00     0.166 HD
ENDROOT
BRANCH   7  19
ATOM     19  C   UNL     1      36.861  35.364  59.478  1.00  0.00     0.225 C 
ATOM     20  O   UNL     1      36.206  34.614  58.763  1.00  0.00    -0.275 OA
ATOM     21  N   UNL     1      36.925  36.702  59.192  1.00  0.00    -0.369 N 
ATOM     22  H   UNL     1      36.461  37.021  58.351  1.00  0.00     0.159 HD
ATOM     23  H   UNL     1      37.552  37.331  59.673  1.00  0.00     0.159 HD
ENDBRANCH   7  19
TORSDOF 1
ENDMDL
MODEL 8
REMARK VINA RESULT:    -8.143      6.397      9.195
REMARK INTER + INTRA:          -8.718
REMARK INTER:                  -8.615
REMARK INTRA:                  -0.103
REMARK UNBOUND:                -0.100
REMARK SMILES CN1C[C@H](C(N)=O)C=C2c3cccc4[nH]cc(c34)C[C@H]21
REMARK SMILES IDX 2 1 15 2 20 3 9 4 19 5 3 6 4 7 17 8 10 9 18 10 8 11 14 12
REMARK SMILES IDX 1 13 16 14 11 15 13 16 12 17 5 19 7 20 6 21
REMARK H PARENT 15 18 6 22 6 23
ROOT
ATOM      1  N   UNL     1      39.561  35.963  61.957  1.00  0.00    -0.298 NA
ATOM      2  N   UNL     1      37.863  30.327  60.722  1.00  0.00    -0.361 N 
ATOM      3  C   UNL     1      38.897  34.802  61.287  1.00  0.00     0.091 C 
ATOM      4  C   UNL     1      37.337  34.849  61.385  1.00  0.00    -0.026 C 
ATOM      5  C   UNL     1      39.501  33.451  61.832  1.00  0.00     0.061 C 
ATOM      6  C   UNL     1      38.823  37.212  61.676  1.00  0.00     0.102 C 
ATOM      7  C   UNL     1      37.412  37.169  62.288  1.00  0.00     0.115 C 
ATOM      8  C   UNL     1      38.711  32.281  61.353  1.00  0.00    -0.020 A 
ATOM      9  C   UNL     1      36.605  33.642  60.937  1.00  0.00    -0.011 A 
ATOM     10  C   UNL     1      37.368  32.467  60.962  1.00  0.00     0.010 A 
ATOM     11  C   UNL     1      36.679  35.918  61.872  1.00  0.00    -0.007 C 
ATOM     12  C   UNL     1      36.847  31.246  60.569  1.00  0.00     0.046 A 
ATOM     13  C   UNL     1      40.951  36.115  61.518  1.00  0.00     0.106 C 
ATOM     14  C   UNL     1      39.000  30.945  61.198  1.00  0.00     0.087 A 
ATOM     15  C   UNL     1      35.282  33.537  60.491  1.00  0.00     0.009 A 
ATOM     16  C   UNL     1      35.528  31.124  60.127  1.00  0.00     0.027 A 
ATOM     17  C   UNL     1      34.758  32.298  60.096  1.00  0.00     0.003 A 
ATOM     18  H   UNL     1      37.780  29.342  60.516  1.00  0.00     0.166 HD
ENDROOT
BRANCH   7  19
ATOM     19  C   UNL     1      36.622  38.409  61.861  1.00  0.00     0.225 C 
ATOM     20  O   UNL     1      35.463  38.649  62.182  1.00  0.00    -0.275 OA
ATOM     21  N   UNL     1      37.309  39.288  61.067  1.00  0.00    -0.369 N 
ATOM     22  H   UNL     1      36.807  40.096  60.724  1.00  0.00     0.159 HD
ATOM     23  H   UNL     1      38.214  39.072  60.673  1.00  0.00     0.159 HD
ENDBRANCH   7  19
TORSDOF 1
ENDMDL
MODEL 9
REMARK VINA RESULT:    -8.114      2.641      5.447
REMARK INTER + INTRA:          -8.688
REMARK INTER:                  -8.594
REMARK INTRA:                  -0.095
REMARK UNBOUND:                -0.100
REMARK SMILES CN1C[C@H](C(N)=O)C=C2c3cccc4[nH]cc(c34)C[C@H]21
REMARK SMILES IDX 2 1 15 2 20 3 9 4 19 5 3 6 4 7 17 8 10 9 18 10 8 11 14 12
REMARK SMILES IDX 1 13 16 14 11 15 13 16 12 17 5 19 7 20 6 21
REMARK H PARENT 15 18 6 22 6 23
ROOT
ATOM      1  N   UNL     1      38.576  26.651  57.935  1.00  0.00    -0.298 NA
ATOM      2  N   UNL     1      38.315  27.727  52.023  1.00  0.00    -0.361 N 
ATOM      3  C   UNL     1      38.963  27.105  56.562  1.00  0.00     0.091 C 
ATOM      4  C   UNL     1      39.130  28.655  56.454  1.00  0.00    -0.026 C 
ATOM      5  C   UNL     1      37.949  26.526  55.501  1.00  0.00     0.061 C 
ATOM      6  C   UNL     1      39.331  27.404  58.958  1.00  0.00     0.102 C 
ATOM      7  C   UNL     1      38.965  28.897  58.927  1.00  0.00     0.115 C 
ATOM      8  C   UNL     1      38.174  27.137  54.160  1.00  0.00    -0.020 A 
ATOM      9  C   UNL     1      39.305  29.213  55.093  1.00  0.00    -0.011 A 
ATOM     10  C   UNL     1      38.809  28.394  54.071  1.00  0.00     0.010 A 
ATOM     11  C   UNL     1      39.097  29.460  57.534  1.00  0.00    -0.007 C 
ATOM     12  C   UNL     1      38.895  28.754  52.737  1.00  0.00     0.046 A 
ATOM     13  C   UNL     1      38.816  25.216  58.116  1.00  0.00     0.106 C 
ATOM     14  C   UNL     1      37.873  26.739  52.878  1.00  0.00     0.087 A 
ATOM     15  C   UNL     1      39.902  30.422  54.713  1.00  0.00     0.009 A 
ATOM     16  C   UNL     1      39.481  29.958  52.342  1.00  0.00     0.027 A 
ATOM     17  C   UNL     1      39.984  30.783  53.361  1.00  0.00     0.003 A 
ATOM     18  H   UNL     1      38.226  27.706  51.017  1.00  0.00     0.166 HD
ENDROOT
BRANCH   7  19
ATOM     19  C   UNL     1      39.863  29.673  59.895  1.00  0.00     0.225 C 
ATOM     20  O   UNL     1      40.964  29.299  60.286  1.00  0.00    -0.275 OA
ATOM     21  N   UNL     1      39.355  30.872  60.321  1.00  0.00    -0.369 N 
ATOM     22  H   UNL     1      39.896  31.392  60.999  1.00  0.00     0.159 HD
ATOM     23  H   UNL     1      38.406  31.159  60.130  1.00  0.00     0.159 HD
ENDBRANCH   7  19
TORSDOF 1
ENDMDL
MODEL 10
REMARK VINA RESULT:    -8.042      2.464      5.679
REMARK INTER + INTRA:          -8.612
REMARK INTER:                  -8.508
REMARK INTRA:                  -0.104
REMARK UNBOUND:                -0.100
REMARK SMILES CN1C[C@H](C(N)=O)C=C2c3cccc4[nH]cc(c34)C[C@H]21
REMARK SMILES IDX 2 1 15 2 20 3 9 4 19 5 3 6 4 7 17 8 10 9 18 10 8 11 14 12
REMARK SMILES IDX 1 13 16 14 11 15 13 16 12 17 5 19 7 20 6 21
REMARK H PARENT 15 18 6 22 6 23
ROOT
ATOM      1  N   UNL     1      39.123  29.282  60.100  1.00  0.00    -0.298 NA
ATOM      2  N   UNL     1      39.336  25.263  55.631  1.00  0.00    -0.361 N 
ATOM      3  C   UNL     1      39.458  28.642  58.789  1.00  0.00     0.091 C 
ATOM      4  C   UNL     1      38.866  29.411  57.563  1.00  0.00    -0.026 C 
ATOM      5  C   UNL     1      39.041  27.121  58.814  1.00  0.00     0.061 C 
ATOM      6  C   UNL     1      39.239  30.752  60.000  1.00  0.00     0.102 C 
ATOM      7  C   UNL     1      38.205  31.323  59.016  1.00  0.00     0.115 C 
ATOM      8  C   UNL     1      39.154  26.515  57.457  1.00  0.00    -0.020 A 
ATOM      9  C   UNL     1      38.966  28.741  56.246  1.00  0.00    -0.011 A 
ATOM     10  C   UNL     1      39.104  27.349  56.320  1.00  0.00     0.010 A 
ATOM     11  C   UNL     1      38.271  30.613  57.687  1.00  0.00    -0.007 C 
ATOM     12  C   UNL     1      39.219  26.562  55.187  1.00  0.00     0.046 A 
ATOM     13  C   UNL     1      39.997  28.801  61.174  1.00  0.00     0.106 C 
ATOM     14  C   UNL     1      39.298  25.222  57.009  1.00  0.00     0.087 A 
ATOM     15  C   UNL     1      38.953  29.316  54.969  1.00  0.00     0.009 A 
ATOM     16  C   UNL     1      39.202  27.120  53.907  1.00  0.00     0.027 A 
ATOM     17  C   UNL     1      39.068  28.516  53.825  1.00  0.00     0.003 A 
ATOM     18  H   UNL     1      39.434  24.458  55.029  1.00  0.00     0.166 HD
ENDROOT
BRANCH   7  19
ATOM     19  C   UNL     1      38.442  32.823  58.823  1.00  0.00     0.225 C 
ATOM     20  O   UNL     1      38.043  33.481  57.869  1.00  0.00    -0.275 OA
ATOM     21  N   UNL     1      39.154  33.429  59.824  1.00  0.00    -0.369 N 
ATOM     22  H   UNL     1      39.373  34.411  59.711  1.00  0.00     0.159 HD
ATOM     23  H   UNL     1      39.610  32.908  60.559  1.00  0.00     0.159 HD
ENDBRANCH   7  19
TORSDOF 1
ENDMDL
MODEL 11
REMARK VINA RESULT:    -8.013      2.210      3.104
REMARK INTER + INTRA:          -8.581
REMARK INTER:                  -8.470
REMARK INTRA:                  -0.111
REMARK UNBOUND:                -0.100
REMARK SMILES CN1C[C@H](C(N)=O)C=C2c3cccc4[nH]cc(c34)C[C@H]21
REMARK SMILES IDX 2 1 15 2 20 3 9 4 19 5 3 6 4 7 17 8 10 9 18 10 8 11 14 12
REMARK SMILES IDX 1 13 16 14 11 15 13 16 12 17 5 19 7 20 6 21
REMARK H PARENT 15 18 6 22 6 23
ROOT
ATOM      1  N   UNL     1      39.273  27.326  57.034  1.00  0.00    -0.298 NA
ATOM      2  N   UNL     1      39.781  29.729  62.524  1.00  0.00    -0.361 N 
ATOM      3  C   UNL     1      38.915  28.005  58.319  1.00  0.00     0.091 C 
ATOM      4  C   UNL     1      38.469  29.491  58.121  1.00  0.00    -0.026 C 
ATOM      5  C   UNL     1      40.097  27.856  59.352  1.00  0.00     0.061 C 
ATOM      6  C   UNL     1      38.315  27.693  55.972  1.00  0.00     0.102 C 
ATOM      7  C   UNL     1      38.396  29.195  55.650  1.00  0.00     0.115 C 
ATOM      8  C   UNL     1      39.866  28.707  60.554  1.00  0.00    -0.020 A 
ATOM      9  C   UNL     1      38.298  30.303  59.348  1.00  0.00    -0.011 A 
ATOM     10  C   UNL     1      39.016  29.829  60.454  1.00  0.00     0.010 A 
ATOM     11  C   UNL     1      38.269  30.026  56.902  1.00  0.00    -0.007 C 
ATOM     12  C   UNL     1      38.967  30.460  61.685  1.00  0.00     0.046 A 
ATOM     13  C   UNL     1      39.293  25.867  57.184  1.00  0.00     0.106 C 
ATOM     14  C   UNL     1      40.333  28.662  61.847  1.00  0.00     0.087 A 
ATOM     15  C   UNL     1      37.517  31.450  59.536  1.00  0.00     0.009 A 
ATOM     16  C   UNL     1      38.197  31.607  61.887  1.00  0.00     0.027 A 
ATOM     17  C   UNL     1      37.472  32.087  60.784  1.00  0.00     0.003 A 
ATOM     18  H   UNL     1      39.949  29.951  63.495  1.00  0.00     0.166 HD
ENDROOT
BRANCH   7  19
ATOM     19  C   UNL     1      37.297  29.574  54.653  1.00  0.00     0.225 C 
ATOM     20  O   UNL     1      36.847  28.831  53.787  1.00  0.00    -0.275 OA
ATOM     21  N   UNL     1      36.810  30.847  54.786  1.00  0.00    -0.369 N 
ATOM     22  H   UNL     1      36.117  31.153  54.115  1.00  0.00     0.159 HD
ATOM     23  H   UNL     1      37.236  31.532  55.394  1.00  0.00     0.159 HD
ENDBRANCH   7  19
TORSDOF 1
ENDMDL
MODEL 12
REMARK VINA RESULT:    -8.008      2.053      3.840
REMARK INTER + INTRA:          -8.576
REMARK INTER:                  -8.454
REMARK INTRA:                  -0.122
REMARK UNBOUND:                -0.100
REMARK SMILES CN1C[C@H](C(N)=O)C=C2c3cccc4[nH]cc(c34)C[C@H]21
REMARK SMILES IDX 2 1 15 2 20 3 9 4 19 5 3 6 4 7 17 8 10 9 18 10 8 11 14 12
REMARK SMILES IDX 1 13 16 14 11 15 13 16 12 17 5 19 7 20 6 21
REMARK H PARENT 15 18 6 22 6 23
ROOT
ATOM      1  N   UNL     1      38.560  29.019  55.581  1.00  0.00    -0.298 NA
ATOM      2  N   UNL     1      38.922  32.365  60.566  1.00  0.00    -0.361 N 
ATOM      3  C   UNL     1      39.037  29.547  56.898  1.00  0.00     0.091 C 
ATOM      4  C   UNL     1      38.902  28.508  58.059  1.00  0.00    -0.026 C 
ATOM      5  C   UNL     1      38.320  30.915  57.218  1.00  0.00     0.061 C 
ATOM      6  C   UNL     1      38.997  27.619  55.398  1.00  0.00     0.102 C 
ATOM      7  C   UNL     1      38.345  26.697  56.443  1.00  0.00     0.115 C 
ATOM      8  C   UNL     1      38.603  31.351  58.615  1.00  0.00    -0.020 A 
ATOM      9  C   UNL     1      39.150  29.007  59.431  1.00  0.00    -0.011 A 
ATOM     10  C   UNL     1      38.978  30.389  59.578  1.00  0.00     0.010 A 
ATOM     11  C   UNL     1      38.556  27.225  57.840  1.00  0.00    -0.007 C 
ATOM     12  C   UNL     1      39.176  31.029  60.790  1.00  0.00     0.046 A 
ATOM     13  C   UNL     1      39.056  29.829  54.465  1.00  0.00     0.106 C 
ATOM     14  C   UNL     1      38.572  32.572  59.248  1.00  0.00     0.087 A 
ATOM     15  C   UNL     1      39.539  28.286  60.567  1.00  0.00     0.009 A 
ATOM     16  C   UNL     1      39.558  30.323  61.933  1.00  0.00     0.027 A 
ATOM     17  C   UNL     1      39.737  28.937  61.793  1.00  0.00     0.003 A 
ATOM     18  H   UNL     1      38.981  33.085  61.271  1.00  0.00     0.166 HD
ENDROOT
BRANCH   7  19
ATOM     19  C   UNL     1      38.924  25.284  56.322  1.00  0.00     0.225 C 
ATOM     20  O   UNL     1      38.686  24.503  55.407  1.00  0.00    -0.275 OA
ATOM     21  N   UNL     1      39.769  24.917  57.335  1.00  0.00    -0.369 N 
ATOM     22  H   UNL     1      40.135  23.973  57.317  1.00  0.00     0.159 HD
ATOM     23  H   UNL     1      39.893  25.473  58.169  1.00  0.00     0.159 HD
ENDBRANCH   7  19
TORSDOF 1
ENDMDL
MODEL 13
REMARK VINA RESULT:    -7.982      5.038      7.881
REMARK INTER + INTRA:          -8.549
REMARK INTER:                  -8.448
REMARK INTRA:                  -0.100
REMARK UNBOUND:                -0.100
REMARK SMILES CN1C[C@H](C(N)=O)C=C2c3cccc4[nH]cc(c34)C[C@H]21
REMARK SMILES IDX 2 1 15 2 20 3 9 4 19 5 3 6 4 7 17 8 10 9 18 10 8 11 14 12
REMARK SMILES IDX 1 13 16 14 11 15 13 16 12 17 5 19 7 20 6 21
REMARK H PARENT 15 18 6 22 6 23
ROOT
ATOM      1  N   UNL     1      38.357  32.062  59.689  1.00  0.00    -0.298 NA
ATOM      2  N   UNL     1      37.072  37.935  59.855  1.00  0.00    -0.361 N 
ATOM      3  C   UNL     1      38.528  33.543  59.811  1.00  0.00     0.091 C 
ATOM      4  C   UNL     1      38.996  33.990  61.235  1.00  0.00    -0.026 C 
ATOM      5  C   UNL     1      37.212  34.276  59.344  1.00  0.00     0.061 C 
ATOM      6  C   UNL     1      39.456  31.357  60.381  1.00  0.00     0.102 C 
ATOM      7  C   UNL     1      39.419  31.627  61.895  1.00  0.00     0.115 C 
ATOM      8  C   UNL     1      37.269  35.731  59.662  1.00  0.00    -0.020 A 
ATOM      9  C   UNL     1      38.990  35.446  61.511  1.00  0.00    -0.011 A 
ATOM     10  C   UNL     1      38.123  36.180  60.691  1.00  0.00     0.010 A 
ATOM     11  C   UNL     1      39.366  33.107  62.181  1.00  0.00    -0.007 C 
ATOM     12  C   UNL     1      37.996  37.555  60.804  1.00  0.00     0.046 A 
ATOM     13  C   UNL     1      38.319  31.637  58.287  1.00  0.00     0.106 C 
ATOM     14  C   UNL     1      36.623  36.834  59.155  1.00  0.00     0.087 A 
ATOM     15  C   UNL     1      39.735  36.159  62.458  1.00  0.00     0.009 A 
ATOM     16  C   UNL     1      38.728  38.280  61.747  1.00  0.00     0.027 A 
ATOM     17  C   UNL     1      39.601  37.550  62.570  1.00  0.00     0.003 A 
ATOM     18  H   UNL     1      36.768  38.885  59.700  1.00  0.00     0.166 HD
ENDROOT
BRANCH   7  19
ATOM     19  C   UNL     1      40.647  31.005  62.564  1.00  0.00     0.225 C 
ATOM     20  O   UNL     1      41.810  31.225  62.243  1.00  0.00    -0.275 OA
ATOM     21  N   UNL     1      40.372  30.151  63.599  1.00  0.00    -0.369 N 
ATOM     22  H   UNL     1      41.154  29.682  64.037  1.00  0.00     0.159 HD
ATOM     23  H   UNL     1      39.435  29.841  63.814  1.00  0.00     0.159 HD
ENDBRANCH   7  19
TORSDOF 1
ENDMDL
MODEL 14
REMARK VINA RESULT:    -7.970      3.281      6.241
REMARK INTER + INTRA:          -8.535
REMARK INTER:                  -8.432
REMARK INTRA:                  -0.103
REMARK UNBOUND:                -0.100
REMARK SMILES CN1C[C@H](C(N)=O)C=C2c3cccc4[nH]cc(c34)C[C@H]21
REMARK SMILES IDX 2 1 15 2 20 3 9 4 19 5 3 6 4 7 17 8 10 9 18 10 8 11 14 12
REMARK SMILES IDX 1 13 16 14 11 15 13 16 12 17 5 19 7 20 6 21
REMARK H PARENT 15 18 6 22 6 23
ROOT
ATOM      1  N   UNL     1      38.552  30.946  61.662  1.00  0.00    -0.298 NA
ATOM      2  N   UNL     1      41.386  27.561  57.578  1.00  0.00    -0.361 N 
ATOM      3  C   UNL     1      39.126  30.489  60.358  1.00  0.00     0.091 C 
ATOM      4  C   UNL     1      38.036  30.221  59.270  1.00  0.00    -0.026 C 
ATOM      5  C   UNL     1      40.070  29.247  60.594  1.00  0.00     0.061 C 
ATOM      6  C   UNL     1      37.458  31.913  61.434  1.00  0.00     0.102 C 
ATOM      7  C   UNL     1      36.278  31.249  60.704  1.00  0.00     0.115 C 
ATOM      8  C   UNL     1      40.477  28.633  59.298  1.00  0.00    -0.020 A 
ATOM      9  C   UNL     1      38.488  29.568  58.020  1.00  0.00    -0.011 A 
ATOM     10  C   UNL     1      39.674  28.834  58.155  1.00  0.00     0.010 A 
ATOM     11  C   UNL     1      36.741  30.543  59.454  1.00  0.00    -0.007 C 
ATOM     12  C   UNL     1      40.247  28.165  57.087  1.00  0.00     0.046 A 
ATOM     13  C   UNL     1      39.573  31.565  62.513  1.00  0.00     0.106 C 
ATOM     14  C   UNL     1      41.535  27.839  58.920  1.00  0.00     0.087 A 
ATOM     15  C   UNL     1      37.898  29.604  56.751  1.00  0.00     0.009 A 
ATOM     16  C   UNL     1      39.668  28.186  55.816  1.00  0.00     0.027 A 
ATOM     17  C   UNL     1      38.481  28.923  55.673  1.00  0.00     0.003 A 
ATOM     18  H   UNL     1      42.016  26.995  57.028  1.00  0.00     0.166 HD
ENDROOT
BRANCH   7  19
ATOM     19  C   UNL     1      35.224  32.302  60.353  1.00  0.00     0.225 C 
ATOM     20  O   UNL     1      34.293  32.133  59.573  1.00  0.00    -0.275 OA
ATOM     21  N   UNL     1      35.375  33.506  60.990  1.00  0.00    -0.369 N 
ATOM     22  H   UNL     1      34.727  34.245  60.749  1.00  0.00     0.159 HD
ATOM     23  H   UNL     1      36.193  33.733  61.536  1.00  0.00     0.159 HD
ENDBRANCH   7  19
TORSDOF 1
ENDMDL
MODEL 15
REMARK VINA RESULT:    -7.965      4.714      6.443
REMARK INTER + INTRA:          -8.531
REMARK INTER:                  -8.436
REMARK INTRA:                  -0.095
REMARK UNBOUND:                -0.100
REMARK SMILES CN1C[C@H](C(N)=O)C=C2c3cccc4[nH]cc(c34)C[C@H]21
REMARK SMILES IDX 2 1 15 2 20 3 9 4 19 5 3 6 4 7 17 8 10 9 18 10 8 11 14 12
REMARK SMILES IDX 1 13 16 14 11 15 13 16 12 17 5 19 7 20 6 21
REMARK H PARENT 15 18 6 22 6 23
ROOT
ATOM      1  N   UNL     1      37.575  30.473  59.993  1.00  0.00    -0.298 NA
ATOM      2  N   UNL     1      37.788  36.423  60.846  1.00  0.00    -0.361 N 
ATOM      3  C   UNL     1      38.075  31.883  59.998  1.00  0.00     0.091 C 
ATOM      4  C   UNL     1      39.323  32.087  60.918  1.00  0.00    -0.026 C 
ATOM      5  C   UNL     1      36.895  32.870  60.344  1.00  0.00     0.061 C 
ATOM      6  C   UNL     1      38.707  29.524  59.954  1.00  0.00     0.102 C 
ATOM      7  C   UNL     1      39.558  29.628  61.230  1.00  0.00     0.115 C 
ATOM      8  C   UNL     1      37.405  34.251  60.576  1.00  0.00    -0.020 A 
ATOM      9  C   UNL     1      39.758  33.483  61.150  1.00  0.00    -0.011 A 
ATOM     10  C   UNL     1      38.752  34.437  60.953  1.00  0.00     0.010 A 
ATOM     11  C   UNL     1      39.966  31.055  61.497  1.00  0.00    -0.007 C 
ATOM     12  C   UNL     1      38.984  35.792  61.118  1.00  0.00     0.046 A 
ATOM     13  C   UNL     1      36.692  30.219  58.850  1.00  0.00     0.106 C 
ATOM     14  C   UNL     1      36.822  35.496  60.515  1.00  0.00     0.087 A 
ATOM     15  C   UNL     1      41.024  33.955  61.520  1.00  0.00     0.009 A 
ATOM     16  C   UNL     1      40.238  36.278  61.492  1.00  0.00     0.027 A 
ATOM     17  C   UNL     1      41.254  35.327  61.687  1.00  0.00     0.003 A 
ATOM     18  H   UNL     1      37.645  37.422  60.886  1.00  0.00     0.166 HD
ENDROOT
BRANCH   7  19
ATOM     19  C   UNL     1      40.800  28.741  61.101  1.00  0.00     0.225 C 
ATOM     20  O   UNL     1      41.336  28.433  60.042  1.00  0.00    -0.275 OA
ATOM     21  N   UNL     1      41.314  28.290  62.287  1.00  0.00    -0.369 N 
ATOM     22  H   UNL     1      42.107  27.661  62.242  1.00  0.00     0.159 HD
ATOM     23  H   UNL     1      40.836  28.409  63.169  1.00  0.00     0.159 HD
ENDBRANCH   7  19
TORSDOF 1
ENDMDL
MODEL 16
REMARK VINA RESULT:    -7.965      7.077      9.299
REMARK INTER + INTRA:          -8.530
REMARK INTER:                  -8.436
REMARK INTRA:                  -0.095
REMARK UNBOUND:                -0.100
REMARK SMILES CN1C[C@H](C(N)=O)C=C2c3cccc4[nH]cc(c34)C[C@H]21
REMARK SMILES IDX 2 1 15 2 20 3 9 4 19 5 3 6 4 7 17 8 10 9 18 10 8 11 14 12
REMARK SMILES IDX 1 13 16 14 11 15 13 16 12 17 5 19 7 20 6 21
REMARK H PARENT 15 18 6 22 6 23
ROOT
ATOM      1  N   UNL     1      37.276  35.166  59.879  1.00  0.00    -0.298 NA
ATOM      2  N   UNL     1      41.308  31.576  62.528  1.00  0.00    -0.361 N 
ATOM      3  C   UNL     1      38.116  34.523  60.937  1.00  0.00     0.091 C 
ATOM      4  C   UNL     1      39.120  35.516  61.608  1.00  0.00    -0.026 C 
ATOM      5  C   UNL     1      38.826  33.241  60.352  1.00  0.00     0.061 C 
ATOM      6  C   UNL     1      36.836  36.508  60.314  1.00  0.00     0.102 C 
ATOM      7  C   UNL     1      38.036  37.455  60.482  1.00  0.00     0.115 C 
ATOM      8  C   UNL     1      39.838  32.710  61.308  1.00  0.00    -0.020 A 
ATOM      9  C   UNL     1      40.134  34.928  62.513  1.00  0.00    -0.011 A 
ATOM     10  C   UNL     1      40.395  33.572  62.276  1.00  0.00     0.010 A 
ATOM     11  C   UNL     1      39.092  36.841  61.367  1.00  0.00    -0.007 C 
ATOM     12  C   UNL     1      41.309  32.858  63.034  1.00  0.00     0.046 A 
ATOM     13  C   UNL     1      36.099  34.353  59.558  1.00  0.00     0.106 C 
ATOM     14  C   UNL     1      40.418  31.474  61.479  1.00  0.00     0.087 A 
ATOM     15  C   UNL     1      40.835  35.542  63.559  1.00  0.00     0.009 A 
ATOM     16  C   UNL     1      42.020  33.458  64.075  1.00  0.00     0.027 A 
ATOM     17  C   UNL     1      41.760  34.816  64.321  1.00  0.00     0.003 A 
ATOM     18  H   UNL     1      41.882  30.822  62.878  1.00  0.00     0.166 HD
ENDROOT
BRANCH   7  19
ATOM     19  C   UNL     1      37.568  38.789  61.070  1.00  0.00     0.225 C 
ATOM     20  O   UNL     1      36.587  38.933  61.792  1.00  0.00    -0.275 OA
ATOM     21  N   UNL     1      38.341  39.870  60.739  1.00  0.00    -0.369 N 
ATOM     22  H   UNL     1      38.038  40.777  61.069  1.00  0.00     0.159 HD
ATOM     23  H   UNL     1      39.077  39.822  60.049  1.00  0.00     0.159 HD
ENDBRANCH   7  19
TORSDOF 1
ENDMDL
MODEL 17
REMARK VINA RESULT:    -7.872      6.035      7.561
REMARK INTER + INTRA:          -8.432
REMARK INTER:                  -8.309
REMARK INTRA:                  -0.122
REMARK UNBOUND:                -0.100
REMARK SMILES CN1C[C@H](C(N)=O)C=C2c3cccc4[nH]cc(c34)C[C@H]21
REMARK SMILES IDX 2 1 15 2 20 3 9 4 19 5 3 6 4 7 17 8 10 9 18 10 8 11 14 12
REMARK SMILES IDX 1 13 16 14 11 15 13 16 12 17 5 19 7 20 6 21
REMARK H PARENT 15 18 6 22 6 23
ROOT
ATOM      1  N   UNL     1      36.203  32.769  59.953  1.00  0.00    -0.298 NA
ATOM      2  N   UNL     1      40.767  29.779  62.484  1.00  0.00    -0.361 N 
ATOM      3  C   UNL     1      37.306  32.409  60.898  1.00  0.00     0.091 C 
ATOM      4  C   UNL     1      38.482  33.439  60.887  1.00  0.00    -0.026 C 
ATOM      5  C   UNL     1      37.786  30.932  60.624  1.00  0.00     0.061 C 
ATOM      6  C   UNL     1      35.938  34.222  59.999  1.00  0.00     0.102 C 
ATOM      7  C   UNL     1      37.152  35.022  59.499  1.00  0.00     0.115 C 
ATOM      8  C   UNL     1      39.025  30.623  61.393  1.00  0.00    -0.020 A 
ATOM      9  C   UNL     1      39.706  33.060  61.630  1.00  0.00    -0.011 A 
ATOM     10  C   UNL     1      39.859  31.680  61.815  1.00  0.00     0.010 A 
ATOM     11  C   UNL     1      38.410  34.607  60.220  1.00  0.00    -0.007 C 
ATOM     12  C   UNL     1      40.941  31.147  62.495  1.00  0.00     0.046 A 
ATOM     13  C   UNL     1      34.969  32.042  60.263  1.00  0.00     0.106 C 
ATOM     14  C   UNL     1      39.605  29.450  61.817  1.00  0.00     0.087 A 
ATOM     15  C   UNL     1      40.696  33.892  62.168  1.00  0.00     0.009 A 
ATOM     16  C   UNL     1      41.939  31.963  63.032  1.00  0.00     0.027 A 
ATOM     17  C   UNL     1      41.790  33.348  62.854  1.00  0.00     0.003 A 
ATOM     18  H   UNL     1      41.403  29.117  62.905  1.00  0.00     0.166 HD
ENDROOT
BRANCH   7  19
ATOM     19  C   UNL     1      36.904  36.520  59.693  1.00  0.00     0.225 C 
ATOM     20  O   UNL     1      36.430  37.269  58.846  1.00  0.00    -0.275 OA
ATOM     21  N   UNL     1      37.250  37.008  60.925  1.00  0.00    -0.369 N 
ATOM     22  H   UNL     1      37.147  38.004  61.077  1.00  0.00     0.159 HD
ATOM     23  H   UNL     1      37.760  36.461  61.604  1.00  0.00     0.159 HD
ENDBRANCH   7  19
TORSDOF 1
ENDMDL
MODEL 18
REMARK VINA RESULT:    -7.808      6.870      9.109
REMARK INTER + INTRA:          -8.364
REMARK INTER:                  -8.260
REMARK INTRA:                  -0.104
REMARK UNBOUND:                -0.100
REMARK SMILES CN1C[C@H](C(N)=O)C=C2c3cccc4[nH]cc(c34)C[C@H]21
REMARK SMILES IDX 2 1 15 2 20 3 9 4 19 5 3 6 4 7 17 8 10 9 18 10 8 11 14 12
REMARK SMILES IDX 1 13 16 14 11 15 13 16 12 17 5 19 7 20 6 21
REMARK H PARENT 15 18 6 22 6 23
ROOT
ATOM      1  N   UNL     1      38.455  33.942  60.455  1.00  0.00    -0.298 NA
ATOM      2  N   UNL     1      41.855  29.845  63.253  1.00  0.00    -0.361 N 
ATOM      3  C   UNL     1      39.147  33.186  61.545  1.00  0.00     0.091 C 
ATOM      4  C   UNL     1      40.225  34.038  62.291  1.00  0.00    -0.026 C 
ATOM      5  C   UNL     1      39.727  31.834  60.976  1.00  0.00     0.061 C 
ATOM      6  C   UNL     1      38.159  35.322  60.892  1.00  0.00     0.102 C 
ATOM      7  C   UNL     1      39.454  36.111  61.146  1.00  0.00     0.115 C 
ATOM      8  C   UNL     1      40.609  31.168  61.976  1.00  0.00    -0.020 A 
ATOM      9  C   UNL     1      41.105  33.317  63.240  1.00  0.00    -0.011 A 
ATOM     10  C   UNL     1      41.211  31.943  62.991  1.00  0.00     0.010 A 
ATOM     11  C   UNL     1      40.374  35.359  62.075  1.00  0.00    -0.007 C 
ATOM     12  C   UNL     1      41.984  31.111  63.783  1.00  0.00     0.046 A 
ATOM     13  C   UNL     1      37.208  33.285  60.052  1.00  0.00     0.106 C 
ATOM     14  C   UNL     1      41.022  29.868  62.154  1.00  0.00     0.087 A 
ATOM     15  C   UNL     1      41.814  33.826  64.335  1.00  0.00     0.009 A 
ATOM     16  C   UNL     1      42.702  31.604  64.875  1.00  0.00     0.027 A 
ATOM     17  C   UNL     1      42.597  32.981  65.133  1.00  0.00     0.003 A 
ATOM     18  H   UNL     1      42.310  29.022  63.619  1.00  0.00     0.166 HD
ENDROOT
BRANCH   7  19
ATOM     19  C   UNL     1      39.121  37.485  61.733  1.00  0.00     0.225 C 
ATOM     20  O   UNL     1      39.824  38.100  62.527  1.00  0.00    -0.275 OA
ATOM     21  N   UNL     1      37.939  38.026  61.302  1.00  0.00    -0.369 N 
ATOM     22  H   UNL     1      37.658  38.912  61.704  1.00  0.00     0.159 HD
ATOM     23  H   UNL     1      37.269  37.505  60.754  1.00  0.00     0.159 HD
ENDBRANCH   7  19
TORSDOF 1
ENDMDL
MODEL 19
REMARK VINA RESULT:    -7.739      2.545      6.392
REMARK INTER + INTRA:          -8.291
REMARK INTER:                  -8.179
REMARK INTRA:                  -0.112
REMARK UNBOUND:                -0.100
REMARK SMILES CN1C[C@H](C(N)=O)C=C2c3cccc4[nH]cc(c34)C[C@H]21
REMARK SMILES IDX 2 1 15 2 20 3 9 4 19 5 3 6 4 7 17 8 10 9 18 10 8 11 14 12
REMARK SMILES IDX 1 13 16 14 11 15 13 16 12 17 5 19 7 20 6 21
REMARK H PARENT 15 18 6 22 6 23
ROOT
ATOM      1  N   UNL     1      38.926  31.814  57.001  1.00  0.00    -0.298 NA
ATOM      2  N   UNL     1      38.653  27.118  53.254  1.00  0.00    -0.361 N 
ATOM      3  C   UNL     1      38.438  30.571  56.326  1.00  0.00     0.091 C 
ATOM      4  C   UNL     1      38.398  29.332  57.278  1.00  0.00    -0.026 C 
ATOM      5  C   UNL     1      39.278  30.307  55.017  1.00  0.00     0.061 C 
ATOM      6  C   UNL     1      38.354  31.922  58.360  1.00  0.00     0.102 C 
ATOM      7  C   UNL     1      38.845  30.774  59.258  1.00  0.00     0.115 C 
ATOM      8  C   UNL     1      38.967  28.966  54.446  1.00  0.00    -0.020 A 
ATOM      9  C   UNL     1      38.130  28.018  56.650  1.00  0.00    -0.011 A 
ATOM     10  C   UNL     1      38.440  27.962  55.285  1.00  0.00     0.010 A 
ATOM     11  C   UNL     1      38.617  29.435  58.603  1.00  0.00    -0.007 C 
ATOM     12  C   UNL     1      38.245  26.814  54.536  1.00  0.00     0.046 A 
ATOM     13  C   UNL     1      38.581  33.015  56.235  1.00  0.00     0.106 C 
ATOM     14  C   UNL     1      39.094  28.423  53.188  1.00  0.00     0.087 A 
ATOM     15  C   UNL     1      37.605  26.859  57.236  1.00  0.00     0.009 A 
ATOM     16  C   UNL     1      37.729  25.649  55.106  1.00  0.00     0.027 A 
ATOM     17  C   UNL     1      37.412  25.699  56.473  1.00  0.00     0.003 A 
ATOM     18  H   UNL     1      38.632  26.472  52.478  1.00  0.00     0.166 HD
ENDROOT
BRANCH   7  19
ATOM     19  C   UNL     1      38.127  30.828  60.609  1.00  0.00     0.225 C 
ATOM     20  O   UNL     1      38.632  30.529  61.686  1.00  0.00    -0.275 OA
ATOM     21  N   UNL     1      36.827  31.255  60.557  1.00  0.00    -0.369 N 
ATOM     22  H   UNL     1      36.302  31.259  61.422  1.00  0.00     0.159 HD
ATOM     23  H   UNL     1      36.332  31.387  59.686  1.00  0.00     0.159 HD
ENDBRANCH   7  19
TORSDOF 1
ENDMDL
