MODEL 1
REMARK VINA RESULT:    -8.199      0.000      0.000
REMARK INTER + INTRA:          -8.783
REMARK INTER:                  -8.679
REMARK INTRA:                  -0.104
REMARK UNBOUND:                -0.104
REMARK SMILES CN1C[C@H](C(N)=O)C=C2c3cccc4[nH]cc(c34)C[C@H]21
REMARK SMILES IDX 2 1 15 2 20 3 9 4 19 5 3 6 4 7 17 8 10 9 18 10 8 11 14 12
REMARK SMILES IDX 1 13 16 14 11 15 13 16 12 17 5 19 7 20 6 21
REMARK H PARENT 15 18 6 22 6 23
ROOT
ATOM      1  N   UNL     1      97.767 123.831 117.366  1.00  0.00    -0.298 NA
ATOM      2  N   UNL     1     101.559 123.302 112.727  1.00  0.00    -0.361 N 
ATOM      3  C   UNL     1      98.319 123.453 116.027  1.00  0.00     0.091 C 
ATOM      4  C   UNL     1      98.476 121.908 115.844  1.00  0.00    -0.026 C 
ATOM      5  C   UNL     1      99.661 124.238 115.759  1.00  0.00     0.061 C 
ATOM      6  C   UNL     1      96.680 122.909 117.755  1.00  0.00     0.102 C 
ATOM      7  C   UNL     1      97.212 121.478 117.946  1.00  0.00     0.115 C 
ATOM      8  C   UNL     1     100.347 123.720 114.541  1.00  0.00    -0.020 A 
ATOM      9  C   UNL     1      99.206 121.451 114.639  1.00  0.00    -0.011 A 
ATOM     10  C   UNL     1     100.075 122.408 114.099  1.00  0.00     0.010 A 
ATOM     11  C   UNL     1      97.996 121.025 116.740  1.00  0.00    -0.007 C 
ATOM     12  C   UNL     1     100.832 122.155 112.967  1.00  0.00     0.046 A 
ATOM     13  C   UNL     1      97.259 125.206 117.370  1.00  0.00     0.106 C 
ATOM     14  C   UNL     1     101.272 124.259 113.677  1.00  0.00     0.087 A 
ATOM     15  C   UNL     1      99.126 120.216 113.983  1.00  0.00     0.009 A 
ATOM     16  C   UNL     1     100.768 120.927 112.306  1.00  0.00     0.027 A 
ATOM     17  C   UNL     1      99.895 119.964 112.839  1.00  0.00     0.003 A 
ATOM     18  H   UNL     1     102.209 123.418 111.963  1.00  0.00     0.166 HD
ENDROOT
BRANCH   7  19
ATOM     19  C   UNL     1      96.046 120.521 118.206  1.00  0.00     0.225 C 
ATOM     20  O   UNL     1      96.002 119.351 117.840  1.00  0.00    -0.275 OA
ATOM     21  N   UNL     1      95.001 121.059 118.910  1.00  0.00    -0.369 N 
ATOM     22  H   UNL     1      94.190 120.473 119.061  1.00  0.00     0.159 HD
ATOM     23  H   UNL     1      94.936 122.045 119.118  1.00  0.00     0.159 HD
ENDBRANCH   7  19
TORSDOF 1
ENDMDL
MODEL 2
REMARK VINA RESULT:    -7.781      3.597      7.133
REMARK INTER + INTRA:          -8.340
REMARK INTER:                  -8.237
REMARK INTRA:                  -0.103
REMARK UNBOUND:                -0.104
REMARK SMILES CN1C[C@H](C(N)=O)C=C2c3cccc4[nH]cc(c34)C[C@H]21
REMARK SMILES IDX 2 1 15 2 20 3 9 4 19 5 3 6 4 7 17 8 10 9 18 10 8 11 14 12
REMARK SMILES IDX 1 13 16 14 11 15 13 16 12 17 5 19 7 20 6 21
REMARK H PARENT 15 18 6 22 6 23
ROOT
ATOM      1  N   UNL     1      97.782 123.480 117.615  1.00  0.00    -0.298 NA
ATOM      2  N   UNL     1      94.678 118.595 119.249  1.00  0.00    -0.361 N 
ATOM      3  C   UNL     1      96.654 122.610 118.073  1.00  0.00     0.091 C 
ATOM      4  C   UNL     1      96.184 122.933 119.529  1.00  0.00    -0.026 C 
ATOM      5  C   UNL     1      97.036 121.092 117.878  1.00  0.00     0.061 C 
ATOM      6  C   UNL     1      97.565 124.876 118.048  1.00  0.00     0.102 C 
ATOM      7  C   UNL     1      97.588 124.989 119.582  1.00  0.00     0.115 C 
ATOM      8  C   UNL     1      96.031 120.202 118.527  1.00  0.00    -0.020 A 
ATOM      9  C   UNL     1      95.220 121.990 120.141  1.00  0.00    -0.011 A 
ATOM     10  C   UNL     1      95.235 120.708 119.577  1.00  0.00     0.010 A 
ATOM     11  C   UNL     1      96.642 123.999 120.213  1.00  0.00    -0.007 C 
ATOM     12  C   UNL     1      94.393 119.702 120.020  1.00  0.00     0.046 A 
ATOM     13  C   UNL     1      97.933 123.445 116.157  1.00  0.00     0.106 C 
ATOM     14  C   UNL     1      95.672 118.888 118.339  1.00  0.00     0.087 A 
ATOM     15  C   UNL     1      94.310 122.222 121.180  1.00  0.00     0.009 A 
ATOM     16  C   UNL     1      93.485 119.915 121.059  1.00  0.00     0.027 A 
ATOM     17  C   UNL     1      93.461 121.199 121.627  1.00  0.00     0.003 A 
ATOM     18  H   UNL     1      94.222 117.699 119.343  1.00  0.00     0.166 HD
ENDROOT
BRANCH   7  19
ATOM     19  C   UNL     1      97.219 126.413 120.005  1.00  0.00     0.225 C 
ATOM     20  O   UNL     1      96.937 126.756 121.148  1.00  0.00    -0.275 OA
ATOM     21  N   UNL     1      97.223 127.336 118.993  1.00  0.00    -0.369 N 
ATOM     22  H   UNL     1      96.938 128.280 119.222  1.00  0.00     0.159 HD
ATOM     23  H   UNL     1      97.321 127.078 118.021  1.00  0.00     0.159 HD
ENDBRANCH   7  19
TORSDOF 1
ENDMDL
MODEL 3
REMARK VINA RESULT:    -7.549      2.187      3.684
REMARK INTER + INTRA:          -8.095
REMARK INTER:                  -7.992
REMARK INTRA:                  -0.103
REMARK UNBOUND:                -0.104
REMARK SMILES CN1C[C@H](C(N)=O)C=C2c3cccc4[nH]cc(c34)C[C@H]21
REMARK SMILES IDX 2 1 15 2 20 3 9 4 19 5 3 6 4 7 17 8 10 9 18 10 8 11 14 12
REMARK SMILES IDX 1 13 16 14 11 15 13 16 12 17 5 19 7 20 6 21
REMARK H PARENT 15 18 6 22 6 23
ROOT
ATOM      1  N   UNL     1      97.172 121.939 117.595  1.00  0.00    -0.298 NA
ATOM      2  N   UNL     1     100.175 119.974 112.768  1.00  0.00    -0.361 N 
ATOM      3  C   UNL     1      98.270 121.739 116.598  1.00  0.00     0.091 C 
ATOM      4  C   UNL     1      98.643 123.049 115.829  1.00  0.00    -0.026 C 
ATOM      5  C   UNL     1      97.906 120.547 115.631  1.00  0.00     0.061 C 
ATOM      6  C   UNL     1      97.357 123.214 118.317  1.00  0.00     0.102 C 
ATOM      7  C   UNL     1      97.234 124.413 117.362  1.00  0.00     0.115 C 
ATOM      8  C   UNL     1      98.868 120.469 114.495  1.00  0.00    -0.020 A 
ATOM      9  C   UNL     1      99.568 122.905 114.680  1.00  0.00    -0.011 A 
ATOM     10  C   UNL     1      99.593 121.621 114.122  1.00  0.00     0.010 A 
ATOM     11  C   UNL     1      98.139 124.251 116.167  1.00  0.00    -0.007 C 
ATOM     12  C   UNL     1     100.406 121.305 113.047  1.00  0.00     0.046 A 
ATOM     13  C   UNL     1      97.117 120.839 118.562  1.00  0.00     0.106 C 
ATOM     14  C   UNL     1      99.242 119.457 113.642  1.00  0.00     0.087 A 
ATOM     15  C   UNL     1     100.407 123.869 114.108  1.00  0.00     0.009 A 
ATOM     16  C   UNL     1     101.245 122.256 112.462  1.00  0.00     0.027 A 
ATOM     17  C   UNL     1     101.228 123.545 113.019  1.00  0.00     0.003 A 
ATOM     18  H   UNL     1     100.626 119.458 112.027  1.00  0.00     0.166 HD
ENDROOT
BRANCH   7  19
ATOM     19  C   UNL     1      97.571 125.708 118.106  1.00  0.00     0.225 C 
ATOM     20  O   UNL     1      97.568 126.827 117.606  1.00  0.00    -0.275 OA
ATOM     21  N   UNL     1      97.887 125.549 119.429  1.00  0.00    -0.369 N 
ATOM     22  H   UNL     1      98.164 126.375 119.944  1.00  0.00     0.159 HD
ATOM     23  H   UNL     1      98.028 124.641 119.850  1.00  0.00     0.159 HD
ENDBRANCH   7  19
TORSDOF 1
ENDMDL
MODEL 4
REMARK VINA RESULT:    -7.462      3.486      7.501
REMARK INTER + INTRA:          -8.003
REMARK INTER:                  -7.899
REMARK INTRA:                  -0.103
REMARK UNBOUND:                -0.104
REMARK SMILES CN1C[C@H](C(N)=O)C=C2c3cccc4[nH]cc(c34)C[C@H]21
REMARK SMILES IDX 2 1 15 2 20 3 9 4 19 5 3 6 4 7 17 8 10 9 18 10 8 11 14 12
REMARK SMILES IDX 1 13 16 14 11 15 13 16 12 17 5 19 7 20 6 21
REMARK H PARENT 15 18 6 22 6 23
ROOT
ATOM      1  N   UNL     1      97.620 122.371 117.431  1.00  0.00    -0.298 NA
ATOM      2  N   UNL     1      93.839 118.560 120.144  1.00  0.00    -0.361 N 
ATOM      3  C   UNL     1      96.375 121.813 118.048  1.00  0.00     0.091 C 
ATOM      4  C   UNL     1      95.943 122.572 119.345  1.00  0.00    -0.026 C 
ATOM      5  C   UNL     1      96.539 120.261 118.276  1.00  0.00     0.061 C 
ATOM      6  C   UNL     1      97.599 123.848 117.472  1.00  0.00     0.102 C 
ATOM      7  C   UNL     1      97.624 124.360 118.922  1.00  0.00     0.115 C 
ATOM      8  C   UNL     1      95.413 119.720 119.089  1.00  0.00    -0.020 A 
ATOM      9  C   UNL     1      94.849 121.965 120.139  1.00  0.00    -0.011 A 
ATOM     10  C   UNL     1      94.687 120.589 119.931  1.00  0.00     0.010 A 
ATOM     11  C   UNL     1      96.541 123.710 119.746  1.00  0.00    -0.007 C 
ATOM     12  C   UNL     1      93.708 119.860 120.583  1.00  0.00     0.046 A 
ATOM     13  C   UNL     1      97.776 121.929 116.042  1.00  0.00     0.106 C 
ATOM     14  C   UNL     1      94.873 118.463 119.236  1.00  0.00     0.087 A 
ATOM     15  C   UNL     1      93.972 122.585 121.037  1.00  0.00     0.009 A 
ATOM     16  C   UNL     1      92.830 120.462 121.487  1.00  0.00     0.027 A 
ATOM     17  C   UNL     1      92.983 121.842 121.697  1.00  0.00     0.003 A 
ATOM     18  H   UNL     1      93.260 117.791 120.449  1.00  0.00     0.166 HD
ENDROOT
BRANCH   7  19
ATOM     19  C   UNL     1      97.456 125.882 118.939  1.00  0.00     0.225 C 
ATOM     20  O   UNL     1      97.209 126.551 119.936  1.00  0.00    -0.275 OA
ATOM     21  N   UNL     1      97.610 126.494 117.724  1.00  0.00    -0.369 N 
ATOM     22  H   UNL     1      97.460 127.494 117.683  1.00  0.00     0.159 HD
ATOM     23  H   UNL     1      97.686 125.977 116.859  1.00  0.00     0.159 HD
ENDBRANCH   7  19
TORSDOF 1
ENDMDL
MODEL 5
REMARK VINA RESULT:    -7.410      3.221      5.797
REMARK INTER + INTRA:          -7.948
REMARK INTER:                  -7.841
REMARK INTRA:                  -0.107
REMARK UNBOUND:                -0.104
REMARK SMILES CN1C[C@H](C(N)=O)C=C2c3cccc4[nH]cc(c34)C[C@H]21
REMARK SMILES IDX 2 1 15 2 20 3 9 4 19 5 3 6 4 7 17 8 10 9 18 10 8 11 14 12
REMARK SMILES IDX 1 13 16 14 11 15 13 16 12 17 5 19 7 20 6 21
REMARK H PARENT 15 18 6 22 6 23
ROOT
ATOM      1  N   UNL     1      95.066 120.181 119.131  1.00  0.00    -0.298 NA
ATOM      2  N   UNL     1      98.558 124.339 116.545  1.00  0.00    -0.361 N 
ATOM      3  C   UNL     1      96.075 121.273 118.962  1.00  0.00     0.091 C 
ATOM      4  C   UNL     1      95.658 122.605 119.667  1.00  0.00    -0.026 C 
ATOM      5  C   UNL     1      96.401 121.470 117.431  1.00  0.00     0.061 C 
ATOM      6  C   UNL     1      94.540 120.174 120.512  1.00  0.00     0.102 C 
ATOM      7  C   UNL     1      93.764 121.467 120.814  1.00  0.00     0.115 C 
ATOM      8  C   UNL     1      97.227 122.692 117.215  1.00  0.00    -0.020 A 
ATOM      9  C   UNL     1      96.488 123.798 119.381  1.00  0.00    -0.011 A 
ATOM     10  C   UNL     1      97.199 123.725 118.176  1.00  0.00     0.010 A 
ATOM     11  C   UNL     1      94.587 122.685 120.480  1.00  0.00    -0.007 C 
ATOM     12  C   UNL     1      98.031 124.747 117.752  1.00  0.00     0.046 A 
ATOM     13  C   UNL     1      95.639 118.867 118.826  1.00  0.00     0.106 C 
ATOM     14  C   UNL     1      98.076 123.092 116.209  1.00  0.00     0.087 A 
ATOM     15  C   UNL     1      96.655 124.954 120.153  1.00  0.00     0.009 A 
ATOM     16  C   UNL     1      98.203 125.909 118.508  1.00  0.00     0.027 A 
ATOM     17  C   UNL     1      97.497 125.987 119.720  1.00  0.00     0.003 A 
ATOM     18  H   UNL     1      99.203 124.882 115.989  1.00  0.00     0.166 HD
ENDROOT
BRANCH   7  19
ATOM     19  C   UNL     1      93.355 121.496 122.289  1.00  0.00     0.225 C 
ATOM     20  O   UNL     1      93.849 122.227 123.141  1.00  0.00    -0.275 OA
ATOM     21  N   UNL     1      92.354 120.625 122.629  1.00  0.00    -0.369 N 
ATOM     22  H   UNL     1      92.088 120.579 123.605  1.00  0.00     0.159 HD
ATOM     23  H   UNL     1      92.009 119.918 121.996  1.00  0.00     0.159 HD
ENDBRANCH   7  19
TORSDOF 1
ENDMDL
MODEL 6
REMARK VINA RESULT:    -7.316      3.027      5.770
REMARK INTER + INTRA:          -7.848
REMARK INTER:                  -7.736
REMARK INTRA:                  -0.112
REMARK UNBOUND:                -0.104
REMARK SMILES CN1C[C@H](C(N)=O)C=C2c3cccc4[nH]cc(c34)C[C@H]21
REMARK SMILES IDX 2 1 15 2 20 3 9 4 19 5 3 6 4 7 17 8 10 9 18 10 8 11 14 12
REMARK SMILES IDX 1 13 16 14 11 15 13 16 12 17 5 19 7 20 6 21
REMARK H PARENT 15 18 6 22 6 23
ROOT
ATOM      1  N   UNL     1     101.322 124.187 113.028  1.00  0.00    -0.298 NA
ATOM      2  N   UNL     1      97.891 119.556 114.747  1.00  0.00    -0.361 N 
ATOM      3  C   UNL     1     100.157 123.411 113.559  1.00  0.00     0.091 C 
ATOM      4  C   UNL     1      99.866 123.698 115.068  1.00  0.00    -0.026 C 
ATOM      5  C   UNL     1     100.356 121.875 113.258  1.00  0.00     0.061 C 
ATOM      6  C   UNL     1     101.296 125.572 113.544  1.00  0.00     0.102 C 
ATOM      7  C   UNL     1     101.478 125.596 115.071  1.00  0.00     0.115 C 
ATOM      8  C   UNL     1      99.330 121.056 113.965  1.00  0.00    -0.020 A 
ATOM      9  C   UNL     1      98.871 122.825 115.732  1.00  0.00    -0.011 A 
ATOM     10  C   UNL     1      98.696 121.581 115.111  1.00  0.00     0.010 A 
ATOM     11  C   UNL     1     100.497 124.673 115.749  1.00  0.00    -0.007 C 
ATOM     12  C   UNL     1      97.800 120.641 115.592  1.00  0.00     0.046 A 
ATOM     13  C   UNL     1     101.327 124.217 111.563  1.00  0.00     0.106 C 
ATOM     14  C   UNL     1      98.818 119.797 113.754  1.00  0.00     0.087 A 
ATOM     15  C   UNL     1      98.095 123.089 116.867  1.00  0.00     0.009 A 
ATOM     16  C   UNL     1      97.023 120.887 116.726  1.00  0.00     0.027 A 
ATOM     17  C   UNL     1      97.190 122.134 117.351  1.00  0.00     0.003 A 
ATOM     18  H   UNL     1      97.354 118.706 114.846  1.00  0.00     0.166 HD
ENDROOT
BRANCH   7  19
ATOM     19  C   UNL     1     101.303 127.025 115.593  1.00  0.00     0.225 C 
ATOM     20  O   UNL     1     101.828 127.472 116.606  1.00  0.00    -0.275 OA
ATOM     21  N   UNL     1     100.494 127.824 114.830  1.00  0.00    -0.369 N 
ATOM     22  H   UNL     1     100.314 128.762 115.166  1.00  0.00     0.159 HD
ATOM     23  H   UNL     1      99.941 127.466 114.064  1.00  0.00     0.159 HD
ENDBRANCH   7  19
TORSDOF 1
ENDMDL
MODEL 7
REMARK VINA RESULT:    -7.019      2.544      6.388
REMARK INTER + INTRA:          -7.534
REMARK INTER:                  -7.427
REMARK INTRA:                  -0.107
REMARK UNBOUND:                -0.104
REMARK SMILES CN1C[C@H](C(N)=O)C=C2c3cccc4[nH]cc(c34)C[C@H]21
REMARK SMILES IDX 2 1 15 2 20 3 9 4 19 5 3 6 4 7 17 8 10 9 18 10 8 11 14 12
REMARK SMILES IDX 1 13 16 14 11 15 13 16 12 17 5 19 7 20 6 21
REMARK H PARENT 15 18 6 22 6 23
ROOT
ATOM      1  N   UNL     1      99.538 121.440 113.723  1.00  0.00    -0.298 NA
ATOM      2  N   UNL     1      96.354 121.720 118.818  1.00  0.00    -0.361 N 
ATOM      3  C   UNL     1      98.612 121.943 114.786  1.00  0.00     0.091 C 
ATOM      4  C   UNL     1      99.126 123.247 115.479  1.00  0.00    -0.026 C 
ATOM      5  C   UNL     1      98.297 120.789 115.813  1.00  0.00     0.061 C 
ATOM      6  C   UNL     1     100.066 122.566 112.924  1.00  0.00     0.102 C 
ATOM      7  C   UNL     1     100.935 123.496 113.787  1.00  0.00     0.115 C 
ATOM      8  C   UNL     1      97.562 121.315 116.998  1.00  0.00    -0.020 A 
ATOM      9  C   UNL     1      98.385 123.699 116.680  1.00  0.00    -0.011 A 
ATOM     10  C   UNL     1      97.668 122.684 117.326  1.00  0.00     0.010 A 
ATOM     11  C   UNL     1     100.202 123.923 115.033  1.00  0.00    -0.007 C 
ATOM     12  C   UNL     1      96.912 122.929 118.460  1.00  0.00     0.046 A 
ATOM     13  C   UNL     1      98.870 120.487 112.833  1.00  0.00     0.106 C 
ATOM     14  C   UNL     1      96.743 120.733 117.937  1.00  0.00     0.087 A 
ATOM     15  C   UNL     1      98.306 124.986 117.225  1.00  0.00     0.009 A 
ATOM     16  C   UNL     1      96.827 124.206 119.019  1.00  0.00     0.027 A 
ATOM     17  C   UNL     1      97.540 125.229 118.373  1.00  0.00     0.003 A 
ATOM     18  H   UNL     1      95.749 121.582 119.615  1.00  0.00     0.166 HD
ENDROOT
BRANCH   7  19
ATOM     19  C   UNL     1     101.348 124.725 112.972  1.00  0.00     0.225 C 
ATOM     20  O   UNL     1     101.350 124.789 111.748  1.00  0.00    -0.275 OA
ATOM     21  N   UNL     1     101.729 125.810 113.716  1.00  0.00    -0.369 N 
ATOM     22  H   UNL     1     102.056 126.627 113.215  1.00  0.00     0.159 HD
ATOM     23  H   UNL     1     101.866 125.764 114.716  1.00  0.00     0.159 HD
ENDBRANCH   7  19
TORSDOF 1
ENDMDL
MODEL 8
REMARK VINA RESULT:    -6.984      2.413      4.240
REMARK INTER + INTRA:          -7.497
REMARK INTER:                  -7.393
REMARK INTRA:                  -0.104
REMARK UNBOUND:                -0.104
REMARK SMILES CN1C[C@H](C(N)=O)C=C2c3cccc4[nH]cc(c34)C[C@H]21
REMARK SMILES IDX 2 1 15 2 20 3 9 4 19 5 3 6 4 7 17 8 10 9 18 10 8 11 14 12
REMARK SMILES IDX 1 13 16 14 11 15 13 16 12 17 5 19 7 20 6 21
REMARK H PARENT 15 18 6 22 6 23
ROOT
ATOM      1  N   UNL     1      94.816 122.303 120.606  1.00  0.00    -0.298 NA
ATOM      2  N   UNL     1      98.623 125.364 117.098  1.00  0.00    -0.361 N 
ATOM      3  C   UNL     1      95.515 122.810 119.384  1.00  0.00     0.091 C 
ATOM      4  C   UNL     1      96.304 121.695 118.624  1.00  0.00    -0.026 C 
ATOM      5  C   UNL     1      96.417 124.049 119.758  1.00  0.00     0.061 C 
ATOM      6  C   UNL     1      94.198 120.987 120.339  1.00  0.00     0.102 C 
ATOM      7  C   UNL     1      95.270 119.926 120.038  1.00  0.00     0.115 C 
ATOM      8  C   UNL     1      97.293 124.435 118.615  1.00  0.00    -0.020 A 
ATOM      9  C   UNL     1      97.194 122.140 117.527  1.00  0.00    -0.011 A 
ATOM     10  C   UNL     1      97.604 123.476 117.628  1.00  0.00     0.010 A 
ATOM     11  C   UNL     1      96.207 120.393 118.953  1.00  0.00    -0.007 C 
ATOM     12  C   UNL     1      98.431 124.062 116.685  1.00  0.00     0.046 A 
ATOM     13  C   UNL     1      93.782 123.238 121.062  1.00  0.00     0.106 C 
ATOM     14  C   UNL     1      97.936 125.601 118.270  1.00  0.00     0.087 A 
ATOM     15  C   UNL     1      97.654 121.411 116.423  1.00  0.00     0.009 A 
ATOM     16  C   UNL     1      98.903 123.347 115.582  1.00  0.00     0.027 A 
ATOM     17  C   UNL     1      98.493 122.009 115.472  1.00  0.00     0.003 A 
ATOM     18  H   UNL     1      99.189 126.042 116.609  1.00  0.00     0.166 HD
ENDROOT
BRANCH   7  19
ATOM     19  C   UNL     1      94.599 118.613 119.624  1.00  0.00     0.225 C 
ATOM     20  O   UNL     1      95.107 117.761 118.903  1.00  0.00    -0.275 OA
ATOM     21  N   UNL     1      93.341 118.422 120.130  1.00  0.00    -0.369 N 
ATOM     22  H   UNL     1      92.845 117.588 119.842  1.00  0.00     0.159 HD
ATOM     23  H   UNL     1      92.835 119.147 120.619  1.00  0.00     0.159 HD
ENDBRANCH   7  19
TORSDOF 1
ENDMDL
MODEL 9
REMARK VINA RESULT:    -6.962      2.849      7.225
REMARK INTER + INTRA:          -7.473
REMARK INTER:                  -7.366
REMARK INTRA:                  -0.107
REMARK UNBOUND:                -0.104
REMARK SMILES CN1C[C@H](C(N)=O)C=C2c3cccc4[nH]cc(c34)C[C@H]21
REMARK SMILES IDX 2 1 15 2 20 3 9 4 19 5 3 6 4 7 17 8 10 9 18 10 8 11 14 12
REMARK SMILES IDX 1 13 16 14 11 15 13 16 12 17 5 19 7 20 6 21
REMARK H PARENT 15 18 6 22 6 23
ROOT
ATOM      1  N   UNL     1      96.834 123.999 119.090  1.00  0.00    -0.298 NA
ATOM      2  N   UNL     1      92.807 120.652 122.049  1.00  0.00    -0.361 N 
ATOM      3  C   UNL     1      96.199 122.833 119.780  1.00  0.00     0.091 C 
ATOM      4  C   UNL     1      95.939 121.623 118.823  1.00  0.00    -0.026 C 
ATOM      5  C   UNL     1      94.896 123.301 120.537  1.00  0.00     0.061 C 
ATOM      6  C   UNL     1      97.879 123.538 118.153  1.00  0.00     0.102 C 
ATOM      7  C   UNL     1      97.270 122.701 117.015  1.00  0.00     0.115 C 
ATOM      8  C   UNL     1      94.124 122.131 121.043  1.00  0.00    -0.020 A 
ATOM      9  C   UNL     1      95.128 120.509 119.364  1.00  0.00    -0.011 A 
ATOM     10  C   UNL     1      94.295 120.872 120.430  1.00  0.00     0.010 A 
ATOM     11  C   UNL     1      96.405 121.592 117.560  1.00  0.00    -0.007 C 
ATOM     12  C   UNL     1      93.472 119.955 121.063  1.00  0.00     0.046 A 
ATOM     13  C   UNL     1      97.425 124.936 120.050  1.00  0.00     0.106 C 
ATOM     14  C   UNL     1      93.195 121.976 122.046  1.00  0.00     0.087 A 
ATOM     15  C   UNL     1      95.102 119.168 118.959  1.00  0.00     0.009 A 
ATOM     16  C   UNL     1      93.431 118.617 120.667  1.00  0.00     0.027 A 
ATOM     17  C   UNL     1      94.266 118.244 119.602  1.00  0.00     0.003 A 
ATOM     18  H   UNL     1      92.130 120.247 122.680  1.00  0.00     0.166 HD
ENDROOT
BRANCH   7  19
ATOM     19  C   UNL     1      98.386 122.118 116.144  1.00  0.00     0.225 C 
ATOM     20  O   UNL     1      98.768 120.953 116.177  1.00  0.00    -0.275 OA
ATOM     21  N   UNL     1      98.964 123.005 115.275  1.00  0.00    -0.369 N 
ATOM     22  H   UNL     1      99.739 122.671 114.716  1.00  0.00     0.159 HD
ATOM     23  H   UNL     1      98.774 123.996 115.303  1.00  0.00     0.159 HD
ENDBRANCH   7  19
TORSDOF 1
ENDMDL
MODEL 10
REMARK VINA RESULT:    -6.755      7.290     11.271
REMARK INTER + INTRA:          -7.255
REMARK INTER:                  -7.153
REMARK INTRA:                  -0.101
REMARK UNBOUND:                -0.104
REMARK SMILES CN1C[C@H](C(N)=O)C=C2c3cccc4[nH]cc(c34)C[C@H]21
REMARK SMILES IDX 2 1 15 2 20 3 9 4 19 5 3 6 4 7 17 8 10 9 18 10 8 11 14 12
REMARK SMILES IDX 1 13 16 14 11 15 13 16 12 17 5 19 7 20 6 21
REMARK H PARENT 15 18 6 22 6 23
ROOT
ATOM      1  N   UNL     1      97.229 130.817 120.632  1.00  0.00    -0.298 NA
ATOM      2  N   UNL     1      92.565 130.532 124.419  1.00  0.00    -0.361 N 
ATOM      3  C   UNL     1      96.320 130.342 121.722  1.00  0.00     0.091 C 
ATOM      4  C   UNL     1      95.672 128.952 121.416  1.00  0.00    -0.026 C 
ATOM      5  C   UNL     1      95.251 131.454 122.051  1.00  0.00     0.061 C 
ATOM      6  C   UNL     1      98.046 129.698 120.118  1.00  0.00     0.102 C 
ATOM      7  C   UNL     1      97.162 128.632 119.447  1.00  0.00     0.115 C 
ATOM      8  C   UNL     1      94.200 130.929 122.968  1.00  0.00    -0.020 A 
ATOM      9  C   UNL     1      94.602 128.501 122.335  1.00  0.00    -0.011 A 
ATOM     10  C   UNL     1      93.966 129.539 123.028  1.00  0.00     0.010 A 
ATOM     11  C   UNL     1      96.043 128.202 120.361  1.00  0.00    -0.007 C 
ATOM     12  C   UNL     1      92.948 129.299 123.935  1.00  0.00     0.046 A 
ATOM     13  C   UNL     1      98.116 131.887 121.099  1.00  0.00     0.106 C 
ATOM     14  C   UNL     1      93.320 131.530 123.838  1.00  0.00     0.087 A 
ATOM     15  C   UNL     1      94.167 127.195 122.597  1.00  0.00     0.009 A 
ATOM     16  C   UNL     1      92.500 128.004 124.203  1.00  0.00     0.027 A 
ATOM     17  C   UNL     1      93.135 126.958 123.515  1.00  0.00     0.003 A 
ATOM     18  H   UNL     1      91.834 130.678 125.100  1.00  0.00     0.166 HD
ENDROOT
BRANCH   7  19
ATOM     19  C   UNL     1      98.014 127.423 119.054  1.00  0.00     0.225 C 
ATOM     20  O   UNL     1      98.659 126.733 119.836  1.00  0.00    -0.275 OA
ATOM     21  N   UNL     1      98.017 127.128 117.716  1.00  0.00    -0.369 N 
ATOM     22  H   UNL     1      98.607 126.365 117.409  1.00  0.00     0.159 HD
ATOM     23  H   UNL     1      97.609 127.739 117.023  1.00  0.00     0.159 HD
ENDBRANCH   7  19
TORSDOF 1
ENDMDL
MODEL 11
REMARK VINA RESULT:    -6.613      3.721      5.764
REMARK INTER + INTRA:          -7.104
REMARK INTER:                  -6.997
REMARK INTRA:                  -0.107
REMARK UNBOUND:                -0.104
REMARK SMILES CN1C[C@H](C(N)=O)C=C2c3cccc4[nH]cc(c34)C[C@H]21
REMARK SMILES IDX 2 1 15 2 20 3 9 4 19 5 3 6 4 7 17 8 10 9 18 10 8 11 14 12
REMARK SMILES IDX 1 13 16 14 11 15 13 16 12 17 5 19 7 20 6 21
REMARK H PARENT 15 18 6 22 6 23
ROOT
ATOM      1  N   UNL     1      97.330 125.347 118.380  1.00  0.00    -0.298 NA
ATOM      2  N   UNL     1     101.638 124.343 114.306  1.00  0.00    -0.361 N 
ATOM      3  C   UNL     1      98.678 125.294 117.732  1.00  0.00     0.091 C 
ATOM      4  C   UNL     1      99.289 126.710 117.475  1.00  0.00    -0.026 C 
ATOM      5  C   UNL     1      98.610 124.413 116.425  1.00  0.00     0.061 C 
ATOM      6  C   UNL     1      97.304 126.385 119.432  1.00  0.00     0.102 C 
ATOM      7  C   UNL     1      97.498 127.786 118.829  1.00  0.00     0.115 C 
ATOM      8  C   UNL     1      99.872 124.523 115.641  1.00  0.00    -0.020 A 
ATOM      9  C   UNL     1     100.519 126.764 116.651  1.00  0.00    -0.011 A 
ATOM     10  C   UNL     1     100.695 125.658 115.810  1.00  0.00     0.010 A 
ATOM     11  C   UNL     1      98.724 127.835 117.953  1.00  0.00    -0.007 C 
ATOM     12  C   UNL     1     101.793 125.538 114.976  1.00  0.00     0.046 A 
ATOM     13  C   UNL     1      96.964 124.055 118.968  1.00  0.00     0.106 C 
ATOM     14  C   UNL     1     100.474 123.719 114.702  1.00  0.00     0.087 A 
ATOM     15  C   UNL     1     101.508 127.755 116.621  1.00  0.00     0.009 A 
ATOM     16  C   UNL     1     102.785 126.520 114.931  1.00  0.00     0.027 A 
ATOM     17  C   UNL     1     102.618 127.630 115.774  1.00  0.00     0.003 A 
ATOM     18  H   UNL     1     102.287 123.983 113.620  1.00  0.00     0.166 HD
ENDROOT
BRANCH   7  19
ATOM     19  C   UNL     1      97.612 128.823 119.950  1.00  0.00     0.225 C 
ATOM     20  O   UNL     1      97.663 130.037 119.782  1.00  0.00    -0.275 OA
ATOM     21  N   UNL     1      97.648 128.304 121.217  1.00  0.00    -0.369 N 
ATOM     22  H   UNL     1      97.771 128.953 121.983  1.00  0.00     0.159 HD
ATOM     23  H   UNL     1      97.738 127.314 121.397  1.00  0.00     0.159 HD
ENDBRANCH   7  19
TORSDOF 1
ENDMDL
MODEL 12
REMARK VINA RESULT:    -6.601      8.991     11.982
REMARK INTER + INTRA:          -7.091
REMARK INTER:                  -6.984
REMARK INTRA:                  -0.107
REMARK UNBOUND:                -0.104
REMARK SMILES CN1C[C@H](C(N)=O)C=C2c3cccc4[nH]cc(c34)C[C@H]21
REMARK SMILES IDX 2 1 15 2 20 3 9 4 19 5 3 6 4 7 17 8 10 9 18 10 8 11 14 12
REMARK SMILES IDX 1 13 16 14 11 15 13 16 12 17 5 19 7 20 6 21
REMARK H PARENT 15 18 6 22 6 23
ROOT
ATOM      1  N   UNL     1      97.362 131.398 122.045  1.00  0.00    -0.298 NA
ATOM      2  N   UNL     1      91.386 131.807 122.579  1.00  0.00    -0.361 N 
ATOM      3  C   UNL     1      95.963 131.132 122.502  1.00  0.00     0.091 C 
ATOM      4  C   UNL     1      95.452 129.706 122.113  1.00  0.00    -0.026 C 
ATOM      5  C   UNL     1      95.006 132.281 121.999  1.00  0.00     0.061 C 
ATOM      6  C   UNL     1      98.210 130.206 122.258  1.00  0.00     0.102 C 
ATOM      7  C   UNL     1      97.736 129.030 121.388  1.00  0.00     0.115 C 
ATOM      8  C   UNL     1      93.578 131.932 122.245  1.00  0.00    -0.020 A 
ATOM      9  C   UNL     1      94.014 129.430 122.337  1.00  0.00    -0.011 A 
ATOM     10  C   UNL     1      93.211 130.577 122.384  1.00  0.00     0.010 A 
ATOM     11  C   UNL     1      96.262 128.773 121.578  1.00  0.00    -0.007 C 
ATOM     12  C   UNL     1      91.844 130.506 122.594  1.00  0.00     0.046 A 
ATOM     13  C   UNL     1      97.951 132.541 122.749  1.00  0.00     0.106 C 
ATOM     14  C   UNL     1      92.431 132.681 122.368  1.00  0.00     0.087 A 
ATOM     15  C   UNL     1      93.378 128.195 122.516  1.00  0.00     0.009 A 
ATOM     16  C   UNL     1      91.195 129.283 122.768  1.00  0.00     0.027 A 
ATOM     17  C   UNL     1      91.994 128.129 122.726  1.00  0.00     0.003 A 
ATOM     18  H   UNL     1      90.420 132.075 122.704  1.00  0.00     0.166 HD
ENDROOT
BRANCH   7  19
ATOM     19  C   UNL     1      98.538 127.772 121.733  1.00  0.00     0.225 C 
ATOM     20  O   UNL     1      98.503 126.721 121.103  1.00  0.00    -0.275 OA
ATOM     21  N   UNL     1      99.343 127.884 122.835  1.00  0.00    -0.369 N 
ATOM     22  H   UNL     1      99.853 127.059 123.125  1.00  0.00     0.159 HD
ATOM     23  H   UNL     1      99.308 128.679 123.457  1.00  0.00     0.159 HD
ENDBRANCH   7  19
TORSDOF 1
ENDMDL
MODEL 13
REMARK VINA RESULT:    -6.598      2.223      5.659
REMARK INTER + INTRA:          -7.088
REMARK INTER:                  -6.985
REMARK INTRA:                  -0.103
REMARK UNBOUND:                -0.104
REMARK SMILES CN1C[C@H](C(N)=O)C=C2c3cccc4[nH]cc(c34)C[C@H]21
REMARK SMILES IDX 2 1 15 2 20 3 9 4 19 5 3 6 4 7 17 8 10 9 18 10 8 11 14 12
REMARK SMILES IDX 1 13 16 14 11 15 13 16 12 17 5 19 7 20 6 21
REMARK H PARENT 15 18 6 22 6 23
ROOT
ATOM      1  N   UNL     1     100.606 125.123 114.707  1.00  0.00    -0.298 NA
ATOM      2  N   UNL     1      96.832 124.370 119.329  1.00  0.00    -0.361 N 
ATOM      3  C   UNL     1      99.894 124.492 115.862  1.00  0.00     0.091 C 
ATOM      4  C   UNL     1      99.034 123.253 115.448  1.00  0.00    -0.026 C 
ATOM      5  C   UNL     1      99.057 125.582 116.636  1.00  0.00     0.061 C 
ATOM      6  C   UNL     1     101.158 124.085 113.812  1.00  0.00     0.102 C 
ATOM      7  C   UNL     1     100.033 123.258 113.167  1.00  0.00     0.115 C 
ATOM      8  C   UNL     1      98.165 124.950 117.649  1.00  0.00    -0.020 A 
ATOM      9  C   UNL     1      98.132 122.693 116.480  1.00  0.00    -0.011 A 
ATOM     10  C   UNL     1      97.784 123.601 117.489  1.00  0.00     0.010 A 
ATOM     11  C   UNL     1      99.084 122.724 114.210  1.00  0.00    -0.007 C 
ATOM     12  C   UNL     1      96.955 123.246 118.540  1.00  0.00     0.046 A 
ATOM     13  C   UNL     1     101.692 125.998 115.158  1.00  0.00     0.106 C 
ATOM     14  C   UNL     1      97.563 125.411 118.797  1.00  0.00     0.087 A 
ATOM     15  C   UNL     1      97.608 121.398 116.575  1.00  0.00     0.009 A 
ATOM     16  C   UNL     1      96.420 121.960 118.645  1.00  0.00     0.027 A 
ATOM     17  C   UNL     1      96.768 121.044 117.640  1.00  0.00     0.003 A 
ATOM     18  H   UNL     1      96.281 124.419 120.174  1.00  0.00     0.166 HD
ENDROOT
BRANCH   7  19
ATOM     19  C   UNL     1     100.633 122.103 112.361  1.00  0.00     0.225 C 
ATOM     20  O   UNL     1     100.005 121.137 111.942  1.00  0.00    -0.275 OA
ATOM     21  N   UNL     1     101.976 122.209 112.110  1.00  0.00    -0.369 N 
ATOM     22  H   UNL     1     102.420 121.442 111.622  1.00  0.00     0.159 HD
ATOM     23  H   UNL     1     102.556 122.915 112.541  1.00  0.00     0.159 HD
ENDBRANCH   7  19
TORSDOF 1
ENDMDL
MODEL 14
REMARK VINA RESULT:    -6.474      5.228      9.371
REMARK INTER + INTRA:          -6.957
REMARK INTER:                  -6.859
REMARK INTRA:                  -0.099
REMARK UNBOUND:                -0.104
REMARK SMILES CN1C[C@H](C(N)=O)C=C2c3cccc4[nH]cc(c34)C[C@H]21
REMARK SMILES IDX 2 1 15 2 20 3 9 4 19 5 3 6 4 7 17 8 10 9 18 10 8 11 14 12
REMARK SMILES IDX 1 13 16 14 11 15 13 16 12 17 5 19 7 20 6 21
REMARK H PARENT 15 18 6 22 6 23
ROOT
ATOM      1  N   UNL     1      98.229 125.603 118.405  1.00  0.00    -0.298 NA
ATOM      2  N   UNL     1      95.052 128.690 122.473  1.00  0.00    -0.361 N 
ATOM      3  C   UNL     1      97.432 126.698 119.042  1.00  0.00     0.091 C 
ATOM      4  C   UNL     1      98.251 128.016 119.237  1.00  0.00    -0.026 C 
ATOM      5  C   UNL     1      96.783 126.179 120.383  1.00  0.00     0.061 C 
ATOM      6  C   UNL     1      99.067 126.142 117.313  1.00  0.00     0.102 C 
ATOM      7  C   UNL     1     100.121 127.120 117.859  1.00  0.00     0.115 C 
ATOM      8  C   UNL     1      96.173 127.303 121.149  1.00  0.00    -0.020 A 
ATOM      9  C   UNL     1      97.614 129.082 120.045  1.00  0.00    -0.011 A 
ATOM     10  C   UNL     1      96.629 128.620 120.927  1.00  0.00     0.010 A 
ATOM     11  C   UNL     1      99.484 128.181 118.720  1.00  0.00    -0.007 C 
ATOM     12  C   UNL     1      95.925 129.478 121.754  1.00  0.00     0.046 A 
ATOM     13  C   UNL     1      97.363 124.547 117.872  1.00  0.00     0.106 C 
ATOM     14  C   UNL     1      95.194 127.366 122.113  1.00  0.00     0.087 A 
ATOM     15  C   UNL     1      97.862 130.460 120.026  1.00  0.00     0.009 A 
ATOM     16  C   UNL     1      96.164 130.854 121.751  1.00  0.00     0.027 A 
ATOM     17  C   UNL     1      97.147 131.325 120.867  1.00  0.00     0.003 A 
ATOM     18  H   UNL     1      94.403 129.037 123.165  1.00  0.00     0.166 HD
ENDROOT
BRANCH   7  19
ATOM     19  C   UNL     1     100.877 127.770 116.697  1.00  0.00     0.225 C 
ATOM     20  O   UNL     1     100.522 127.741 115.523  1.00  0.00    -0.275 OA
ATOM     21  N   UNL     1     102.026 128.427 117.050  1.00  0.00    -0.369 N 
ATOM     22  H   UNL     1     102.580 128.829 116.305  1.00  0.00     0.159 HD
ATOM     23  H   UNL     1     102.423 128.369 117.977  1.00  0.00     0.159 HD
ENDBRANCH   7  19
TORSDOF 1
ENDMDL
MODEL 15
REMARK VINA RESULT:    -6.382      4.170      6.804
REMARK INTER + INTRA:          -6.860
REMARK INTER:                  -6.765
REMARK INTRA:                  -0.095
REMARK UNBOUND:                -0.104
REMARK SMILES CN1C[C@H](C(N)=O)C=C2c3cccc4[nH]cc(c34)C[C@H]21
REMARK SMILES IDX 2 1 15 2 20 3 9 4 19 5 3 6 4 7 17 8 10 9 18 10 8 11 14 12
REMARK SMILES IDX 1 13 16 14 11 15 13 16 12 17 5 19 7 20 6 21
REMARK H PARENT 15 18 6 22 6 23
ROOT
ATOM      1  N   UNL     1      93.316 120.082 121.228  1.00  0.00    -0.298 NA
ATOM      2  N   UNL     1      97.248 121.044 116.780  1.00  0.00    -0.361 N 
ATOM      3  C   UNL     1      94.535 120.547 120.495  1.00  0.00     0.091 C 
ATOM      4  C   UNL     1      94.652 122.104 120.426  1.00  0.00    -0.026 C 
ATOM      5  C   UNL     1      94.596 119.868 119.072  1.00  0.00     0.061 C 
ATOM      6  C   UNL     1      93.090 120.911 122.430  1.00  0.00     0.102 C 
ATOM      7  C   UNL     1      92.778 122.368 122.046  1.00  0.00     0.115 C 
ATOM      8  C   UNL     1      95.670 120.476 118.236  1.00  0.00    -0.020 A 
ATOM      9  C   UNL     1      95.707 122.655 119.545  1.00  0.00    -0.011 A 
ATOM     10  C   UNL     1      96.119 121.782 118.530  1.00  0.00     0.010 A 
ATOM     11  C   UNL     1      93.826 122.919 121.111  1.00  0.00    -0.007 C 
ATOM     12  C   UNL     1      97.103 122.128 117.619  1.00  0.00     0.046 A 
ATOM     13  C   UNL     1      93.430 118.676 121.626  1.00  0.00     0.106 C 
ATOM     14  C   UNL     1      96.381 120.035 117.145  1.00  0.00     0.087 A 
ATOM     15  C   UNL     1      96.336 123.904 119.609  1.00  0.00     0.009 A 
ATOM     16  C   UNL     1      97.735 123.372 117.667  1.00  0.00     0.027 A 
ATOM     17  C   UNL     1      97.331 124.251 118.684  1.00  0.00     0.003 A 
ATOM     18  H   UNL     1      97.896 121.002 116.006  1.00  0.00     0.166 HD
ENDROOT
BRANCH   7  19
ATOM     19  C   UNL     1      92.692 123.231 123.307  1.00  0.00     0.225 C 
ATOM     20  O   UNL     1      93.226 122.967 124.378  1.00  0.00    -0.275 OA
ATOM     21  N   UNL     1      91.956 124.379 123.173  1.00  0.00    -0.369 N 
ATOM     22  H   UNL     1      91.834 124.953 123.997  1.00  0.00     0.159 HD
ATOM     23  H   UNL     1      91.395 124.573 122.355  1.00  0.00     0.159 HD
ENDBRANCH   7  19
TORSDOF 1
ENDMDL
MODEL 16
REMARK VINA RESULT:    -6.214      1.815      3.700
REMARK INTER + INTRA:          -6.682
REMARK INTER:                  -6.578
REMARK INTRA:                  -0.103
REMARK UNBOUND:                -0.104
REMARK SMILES CN1C[C@H](C(N)=O)C=C2c3cccc4[nH]cc(c34)C[C@H]21
REMARK SMILES IDX 2 1 15 2 20 3 9 4 19 5 3 6 4 7 17 8 10 9 18 10 8 11 14 12
REMARK SMILES IDX 1 13 16 14 11 15 13 16 12 17 5 19 7 20 6 21
REMARK H PARENT 15 18 6 22 6 23
ROOT
ATOM      1  N   UNL     1      98.436 120.811 114.852  1.00  0.00    -0.298 NA
ATOM      2  N   UNL     1     101.644 125.267 112.397  1.00  0.00    -0.361 N 
ATOM      3  C   UNL     1      99.434 121.916 114.698  1.00  0.00     0.091 C 
ATOM      4  C   UNL     1      99.131 123.146 115.614  1.00  0.00    -0.026 C 
ATOM      5  C   UNL     1      99.568 122.308 113.176  1.00  0.00     0.061 C 
ATOM      6  C   UNL     1      98.088 120.627 116.277  1.00  0.00     0.102 C 
ATOM      7  C   UNL     1      97.377 121.870 116.837  1.00  0.00     0.115 C 
ATOM      8  C   UNL     1     100.381 123.547 113.014  1.00  0.00    -0.020 A 
ATOM      9  C   UNL     1      99.938 124.366 115.379  1.00  0.00    -0.011 A 
ATOM     10  C   UNL     1     100.491 124.448 114.094  1.00  0.00     0.010 A 
ATOM     11  C   UNL     1      98.172 123.121 116.560  1.00  0.00    -0.007 C 
ATOM     12  C   UNL     1     101.280 125.516 113.703  1.00  0.00     0.046 A 
ATOM     13  C   UNL     1      98.945 119.547 114.312  1.00  0.00     0.106 C 
ATOM     14  C   UNL     1     101.103 124.073 111.968  1.00  0.00     0.087 A 
ATOM     15  C   UNL     1     100.220 125.413 116.265  1.00  0.00     0.009 A 
ATOM     16  C   UNL     1     101.565 126.571 114.573  1.00  0.00     0.027 A 
ATOM     17  C   UNL     1     101.018 126.493 115.864  1.00  0.00     0.003 A 
ATOM     18  H   UNL     1     102.222 125.877 111.837  1.00  0.00     0.166 HD
ENDROOT
BRANCH   7  19
ATOM     19  C   UNL     1      97.158 121.709 118.343  1.00  0.00     0.225 C 
ATOM     20  O   UNL     1      96.930 122.628 119.123  1.00  0.00    -0.275 OA
ATOM     21  N   UNL     1      97.225 120.421 118.803  1.00  0.00    -0.369 N 
ATOM     22  H   UNL     1      97.133 120.277 119.801  1.00  0.00     0.159 HD
ATOM     23  H   UNL     1      97.535 119.653 118.226  1.00  0.00     0.159 HD
ENDBRANCH   7  19
TORSDOF 1
ENDMDL
MODEL 17
REMARK VINA RESULT:    -6.091      2.624      5.273
REMARK INTER + INTRA:          -6.552
REMARK INTER:                  -6.445
REMARK INTRA:                  -0.107
REMARK UNBOUND:                -0.104
REMARK SMILES CN1C[C@H](C(N)=O)C=C2c3cccc4[nH]cc(c34)C[C@H]21
REMARK SMILES IDX 2 1 15 2 20 3 9 4 19 5 3 6 4 7 17 8 10 9 18 10 8 11 14 12
REMARK SMILES IDX 1 13 16 14 11 15 13 16 12 17 5 19 7 20 6 21
REMARK H PARENT 15 18 6 22 6 23
ROOT
ATOM      1  N   UNL     1     101.301 122.996 114.067  1.00  0.00    -0.298 NA
ATOM      2  N   UNL     1     101.042 128.372 116.751  1.00  0.00    -0.361 N 
ATOM      3  C   UNL     1     101.138 124.041 115.126  1.00  0.00     0.091 C 
ATOM      4  C   UNL     1      99.689 124.100 115.711  1.00  0.00    -0.026 C 
ATOM      5  C   UNL     1     101.634 125.437 114.583  1.00  0.00     0.061 C 
ATOM      6  C   UNL     1     100.588 121.760 114.450  1.00  0.00     0.102 C 
ATOM      7  C   UNL     1      99.070 121.999 114.527  1.00  0.00     0.115 C 
ATOM      8  C   UNL     1     101.280 126.533 115.528  1.00  0.00    -0.020 A 
ATOM      9  C   UNL     1      99.379 125.237 116.609  1.00  0.00    -0.011 A 
ATOM     10  C   UNL     1     100.211 126.350 116.431  1.00  0.00     0.010 A 
ATOM     11  C   UNL     1      98.752 123.183 115.404  1.00  0.00    -0.007 C 
ATOM     12  C   UNL     1     100.070 127.499 117.191  1.00  0.00     0.046 A 
ATOM     13  C   UNL     1     102.713 122.686 113.829  1.00  0.00     0.106 C 
ATOM     14  C   UNL     1     101.783 127.796 115.741  1.00  0.00     0.087 A 
ATOM     15  C   UNL     1      98.391 125.327 117.596  1.00  0.00     0.009 A 
ATOM     16  C   UNL     1      99.085 127.606 118.176  1.00  0.00     0.027 A 
ATOM     17  C   UNL     1      98.251 126.493 118.362  1.00  0.00     0.003 A 
ATOM     18  H   UNL     1     101.185 129.302 117.119  1.00  0.00     0.166 HD
ENDROOT
BRANCH   7  19
ATOM     19  C   UNL     1      98.373 120.745 115.063  1.00  0.00     0.225 C 
ATOM     20  O   UNL     1      97.805 120.666 116.147  1.00  0.00    -0.275 OA
ATOM     21  N   UNL     1      98.411 119.661 114.227  1.00  0.00    -0.369 N 
ATOM     22  H   UNL     1      98.003 118.798 114.565  1.00  0.00     0.159 HD
ATOM     23  H   UNL     1      98.973 119.639 113.389  1.00  0.00     0.159 HD
ENDBRANCH   7  19
TORSDOF 1
ENDMDL
MODEL 18
REMARK VINA RESULT:    -5.985      2.316      4.317
REMARK INTER + INTRA:          -6.439
REMARK INTER:                  -6.333
REMARK INTRA:                  -0.106
REMARK UNBOUND:                -0.104
REMARK SMILES CN1C[C@H](C(N)=O)C=C2c3cccc4[nH]cc(c34)C[C@H]21
REMARK SMILES IDX 2 1 15 2 20 3 9 4 19 5 3 6 4 7 17 8 10 9 18 10 8 11 14 12
REMARK SMILES IDX 1 13 16 14 11 15 13 16 12 17 5 19 7 20 6 21
REMARK H PARENT 15 18 6 22 6 23
ROOT
ATOM      1  N   UNL     1      98.400 122.071 115.722  1.00  0.00    -0.298 NA
ATOM      2  N   UNL     1     102.049 126.636 114.303  1.00  0.00    -0.361 N 
ATOM      3  C   UNL     1      99.368 123.202 115.863  1.00  0.00     0.091 C 
ATOM      4  C   UNL     1      98.782 124.414 116.659  1.00  0.00    -0.026 C 
ATOM      5  C   UNL     1      99.921 123.616 114.445  1.00  0.00     0.061 C 
ATOM      6  C   UNL     1      97.664 121.860 116.986  1.00  0.00     0.102 C 
ATOM      7  C   UNL     1      96.788 123.079 117.324  1.00  0.00     0.115 C 
ATOM      8  C   UNL     1     100.711 124.877 114.527  1.00  0.00    -0.020 A 
ATOM      9  C   UNL     1      99.588 125.657 116.670  1.00  0.00    -0.011 A 
ATOM     10  C   UNL     1     100.482 125.768 115.597  1.00  0.00     0.010 A 
ATOM     11  C   UNL     1      97.594 124.353 117.291  1.00  0.00    -0.007 C 
ATOM     12  C   UNL     1     101.320 126.861 115.452  1.00  0.00     0.046 A 
ATOM     13  C   UNL     1      99.077 120.826 115.345  1.00  0.00     0.106 C 
ATOM     14  C   UNL     1     101.687 125.434 113.733  1.00  0.00     0.087 A 
ATOM     15  C   UNL     1      99.574 126.700 117.603  1.00  0.00     0.009 A 
ATOM     16  C   UNL     1     101.314 127.912 116.371  1.00  0.00     0.027 A 
ATOM     17  C   UNL     1     100.424 127.805 117.451  1.00  0.00     0.003 A 
ATOM     18  H   UNL     1     102.746 127.267 113.935  1.00  0.00     0.166 HD
ENDROOT
BRANCH   7  19
ATOM     19  C   UNL     1      96.151 122.895 118.704  1.00  0.00     0.225 C 
ATOM     20  O   UNL     1      96.597 123.353 119.751  1.00  0.00    -0.275 OA
ATOM     21  N   UNL     1      94.995 122.161 118.715  1.00  0.00    -0.369 N 
ATOM     22  H   UNL     1      94.569 121.975 119.614  1.00  0.00     0.159 HD
ATOM     23  H   UNL     1      94.662 121.658 117.904  1.00  0.00     0.159 HD
ENDBRANCH   7  19
TORSDOF 1
ENDMDL
MODEL 19
REMARK VINA RESULT:    -5.865      2.975      5.579
REMARK INTER + INTRA:          -6.313
REMARK INTER:                  -6.196
REMARK INTRA:                  -0.117
REMARK UNBOUND:                -0.104
REMARK SMILES CN1C[C@H](C(N)=O)C=C2c3cccc4[nH]cc(c34)C[C@H]21
REMARK SMILES IDX 2 1 15 2 20 3 9 4 19 5 3 6 4 7 17 8 10 9 18 10 8 11 14 12
REMARK SMILES IDX 1 13 16 14 11 15 13 16 12 17 5 19 7 20 6 21
REMARK H PARENT 15 18 6 22 6 23
ROOT
ATOM      1  N   UNL     1      97.190 121.799 117.142  1.00  0.00    -0.298 NA
ATOM      2  N   UNL     1      99.196 127.407 117.976  1.00  0.00    -0.361 N 
ATOM      3  C   UNL     1      97.753 123.015 117.809  1.00  0.00     0.091 C 
ATOM      4  C   UNL     1      96.821 123.585 118.928  1.00  0.00    -0.026 C 
ATOM      5  C   UNL     1      98.134 124.094 116.724  1.00  0.00     0.061 C 
ATOM      6  C   UNL     1      96.570 120.903 118.140  1.00  0.00     0.102 C 
ATOM      7  C   UNL     1      95.357 121.574 118.806  1.00  0.00     0.115 C 
ATOM      8  C   UNL     1      98.485 125.393 117.365  1.00  0.00    -0.020 A 
ATOM      9  C   UNL     1      97.192 124.901 119.498  1.00  0.00    -0.011 A 
ATOM     10  C   UNL     1      97.996 125.682 118.657  1.00  0.00     0.010 A 
ATOM     11  C   UNL     1      95.719 122.934 119.347  1.00  0.00    -0.007 C 
ATOM     12  C   UNL     1      98.444 126.937 119.031  1.00  0.00     0.046 A 
ATOM     13  C   UNL     1      98.223 121.062 116.407  1.00  0.00     0.106 C 
ATOM     14  C   UNL     1      99.228 126.477 116.958  1.00  0.00     0.087 A 
ATOM     15  C   UNL     1      96.858 125.439 120.746  1.00  0.00     0.009 A 
ATOM     16  C   UNL     1      98.115 127.490 120.270  1.00  0.00     0.027 A 
ATOM     17  C   UNL     1      97.313 126.711 121.120  1.00  0.00     0.003 A 
ATOM     18  H   UNL     1      99.655 128.307 117.955  1.00  0.00     0.166 HD
ENDROOT
BRANCH   7  19
ATOM     19  C   UNL     1      94.824 120.684 119.932  1.00  0.00     0.225 C 
ATOM     20  O   UNL     1      94.534 119.499 119.814  1.00  0.00    -0.275 OA
ATOM     21  N   UNL     1      94.685 121.307 121.144  1.00  0.00    -0.369 N 
ATOM     22  H   UNL     1      94.290 120.766 121.903  1.00  0.00     0.159 HD
ATOM     23  H   UNL     1      94.787 122.305 121.258  1.00  0.00     0.159 HD
ENDBRANCH   7  19
TORSDOF 1
ENDMDL
