MODEL 1
REMARK VINA RESULT:    -8.912      0.000      0.000
REMARK INTER + INTRA:          -9.536
REMARK INTER:                  -9.433
REMARK INTRA:                  -0.103
REMARK UNBOUND:                -0.103
REMARK SMILES CN1C[C@H](C(N)=O)C=C2c3cccc4[nH]cc(c34)C[C@H]21
REMARK SMILES IDX 2 1 15 2 20 3 9 4 19 5 3 6 4 7 17 8 10 9 18 10 8 11 14 12
REMARK SMILES IDX 1 13 16 14 11 15 13 16 12 17 5 19 7 20 6 21
REMARK H PARENT 15 18 6 22 6 23
ROOT
ATOM      1  N   UNL     1     102.271 113.895 109.512  1.00  0.00    -0.298 NA
ATOM      2  N   UNL     1     102.853 119.316 112.051  1.00  0.00    -0.361 N 
ATOM      3  C   UNL     1     102.453 115.373 109.664  1.00  0.00     0.091 C 
ATOM      4  C   UNL     1     103.849 115.872 109.169  1.00  0.00    -0.026 C 
ATOM      5  C   UNL     1     102.144 115.801 111.150  1.00  0.00     0.061 C 
ATOM      6  C   UNL     1     102.824 113.438 108.219  1.00  0.00     0.102 C 
ATOM      7  C   UNL     1     104.346 113.648 108.165  1.00  0.00     0.115 C 
ATOM      8  C   UNL     1     102.530 117.221 111.388  1.00  0.00    -0.020 A 
ATOM      9  C   UNL     1     104.199 117.279 109.471  1.00  0.00    -0.011 A 
ATOM     10  C   UNL     1     103.500 117.822 110.557  1.00  0.00     0.010 A 
ATOM     11  C   UNL     1     104.712 115.068 108.518  1.00  0.00    -0.007 C 
ATOM     12  C   UNL     1     103.695 119.127 110.976  1.00  0.00     0.046 A 
ATOM     13  C   UNL     1     100.858 113.515 109.594  1.00  0.00     0.106 C 
ATOM     14  C   UNL     1     102.141 118.163 112.311  1.00  0.00     0.087 A 
ATOM     15  C   UNL     1     105.110 118.115 108.814  1.00  0.00     0.009 A 
ATOM     16  C   UNL     1     104.604 119.971 110.334  1.00  0.00     0.027 A 
ATOM     17  C   UNL     1     105.305 119.435 109.242  1.00  0.00     0.003 A 
ATOM     18  H   UNL     1     102.776 120.177 112.574  1.00  0.00     0.166 HD
ENDROOT
BRANCH   7  19
ATOM     19  C   UNL     1     104.869 113.301 106.768  1.00  0.00     0.225 C 
ATOM     20  O   UNL     1     106.014 113.501 106.377  1.00  0.00    -0.275 OA
ATOM     21  N   UNL     1     103.951 112.720 105.935  1.00  0.00    -0.369 N 
ATOM     22  H   UNL     1     104.244 112.520 104.987  1.00  0.00     0.159 HD
ATOM     23  H   UNL     1     102.970 112.655 106.167  1.00  0.00     0.159 HD
ENDBRANCH   7  19
TORSDOF 1
ENDMDL
MODEL 2
REMARK VINA RESULT:    -8.466      3.447      6.429
REMARK INTER + INTRA:          -9.064
REMARK INTER:                  -8.952
REMARK INTRA:                  -0.112
REMARK UNBOUND:                -0.103
REMARK SMILES CN1C[C@H](C(N)=O)C=C2c3cccc4[nH]cc(c34)C[C@H]21
REMARK SMILES IDX 2 1 15 2 20 3 9 4 19 5 3 6 4 7 17 8 10 9 18 10 8 11 14 12
REMARK SMILES IDX 1 13 16 14 11 15 13 16 12 17 5 19 7 20 6 21
REMARK H PARENT 15 18 6 22 6 23
ROOT
ATOM      1  N   UNL     1     102.770 120.521 112.320  1.00  0.00    -0.298 NA
ATOM      2  N   UNL     1     106.655 116.684 109.800  1.00  0.00    -0.361 N 
ATOM      3  C   UNL     1     103.351 119.512 111.381  1.00  0.00     0.091 C 
ATOM      4  C   UNL     1     102.601 118.140 111.416  1.00  0.00    -0.026 C 
ATOM      5  C   UNL     1     104.900 119.366 111.644  1.00  0.00     0.061 C 
ATOM      6  C   UNL     1     101.293 120.465 112.288  1.00  0.00     0.102 C 
ATOM      7  C   UNL     1     100.780 119.112 112.809  1.00  0.00     0.115 C 
ATOM      8  C   UNL     1     105.464 118.215 110.883  1.00  0.00    -0.020 A 
ATOM      9  C   UNL     1     103.230 117.019 110.680  1.00  0.00    -0.011 A 
ATOM     10  C   UNL     1     104.609 117.166 110.481  1.00  0.00     0.010 A 
ATOM     11  C   UNL     1     101.451 117.966 112.095  1.00  0.00    -0.007 C 
ATOM     12  C   UNL     1     105.358 116.217 109.806  1.00  0.00     0.046 A 
ATOM     13  C   UNL     1     103.208 121.880 111.990  1.00  0.00     0.106 C 
ATOM     14  C   UNL     1     106.731 117.897 110.452  1.00  0.00     0.087 A 
ATOM     15  C   UNL     1     102.628 115.866 110.161  1.00  0.00     0.009 A 
ATOM     16  C   UNL     1     104.773 115.060 109.288  1.00  0.00     0.027 A 
ATOM     17  C   UNL     1     103.390 114.907 109.480  1.00  0.00     0.003 A 
ATOM     18  H   UNL     1     107.435 116.201 109.378  1.00  0.00     0.166 HD
ENDROOT
BRANCH   7  19
ATOM     19  C   UNL     1      99.262 119.027 112.629  1.00  0.00     0.225 C 
ATOM     20  O   UNL     1      98.509 118.353 113.324  1.00  0.00    -0.275 OA
ATOM     21  N   UNL     1      98.758 119.785 111.606  1.00  0.00    -0.369 N 
ATOM     22  H   UNL     1      97.764 119.719 111.424  1.00  0.00     0.159 HD
ATOM     23  H   UNL     1      99.348 120.250 110.931  1.00  0.00     0.159 HD
ENDBRANCH   7  19
TORSDOF 1
ENDMDL
MODEL 3
REMARK VINA RESULT:    -8.361      2.552      5.944
REMARK INTER + INTRA:          -8.953
REMARK INTER:                  -8.847
REMARK INTRA:                  -0.105
REMARK UNBOUND:                -0.103
REMARK SMILES CN1C[C@H](C(N)=O)C=C2c3cccc4[nH]cc(c34)C[C@H]21
REMARK SMILES IDX 2 1 15 2 20 3 9 4 19 5 3 6 4 7 17 8 10 9 18 10 8 11 14 12
REMARK SMILES IDX 1 13 16 14 11 15 13 16 12 17 5 19 7 20 6 21
REMARK H PARENT 15 18 6 22 6 23
ROOT
ATOM      1  N   UNL     1     105.148 117.122 108.486  1.00  0.00    -0.298 NA
ATOM      2  N   UNL     1     101.497 112.403 109.250  1.00  0.00    -0.361 N 
ATOM      3  C   UNL     1     103.912 116.317 108.743  1.00  0.00     0.091 C 
ATOM      4  C   UNL     1     103.347 116.509 110.189  1.00  0.00    -0.026 C 
ATOM      5  C   UNL     1     104.175 114.803 108.388  1.00  0.00     0.061 C 
ATOM      6  C   UNL     1     105.016 118.471 109.074  1.00  0.00     0.102 C 
ATOM      7  C   UNL     1     104.915 118.398 110.607  1.00  0.00     0.115 C 
ATOM      8  C   UNL     1     103.044 113.945 108.842  1.00  0.00    -0.020 A 
ATOM      9  C   UNL     1     102.254 115.599 110.602  1.00  0.00    -0.011 A 
ATOM     10  C   UNL     1     102.206 114.398 109.883  1.00  0.00     0.010 A 
ATOM     11  C   UNL     1     103.834 117.437 111.035  1.00  0.00    -0.007 C 
ATOM     12  C   UNL     1     101.244 113.433 110.131  1.00  0.00     0.046 A 
ATOM     13  C   UNL     1     105.421 117.245 107.051  1.00  0.00     0.106 C 
ATOM     14  C   UNL     1     102.589 112.703 108.462  1.00  0.00     0.087 A 
ATOM     15  C   UNL     1     101.281 115.793 111.590  1.00  0.00     0.009 A 
ATOM     16  C   UNL     1     100.271 113.609 111.116  1.00  0.00     0.027 A 
ATOM     17  C   UNL     1     100.310 114.813 111.839  1.00  0.00     0.003 A 
ATOM     18  H   UNL     1     100.958 111.551 109.196  1.00  0.00     0.166 HD
ENDROOT
BRANCH   7  19
ATOM     19  C   UNL     1     104.636 119.791 111.177  1.00  0.00     0.225 C 
ATOM     20  O   UNL     1     103.531 120.319 111.234  1.00  0.00    -0.275 OA
ATOM     21  N   UNL     1     105.737 120.453 111.652  1.00  0.00    -0.369 N 
ATOM     22  H   UNL     1     105.602 121.396 111.993  1.00  0.00     0.159 HD
ATOM     23  H   UNL     1     106.678 120.115 111.510  1.00  0.00     0.159 HD
ENDBRANCH   7  19
TORSDOF 1
ENDMDL
MODEL 4
REMARK VINA RESULT:    -8.329      2.222      4.363
REMARK INTER + INTRA:          -8.919
REMARK INTER:                  -8.813
REMARK INTRA:                  -0.106
REMARK UNBOUND:                -0.103
REMARK SMILES CN1C[C@H](C(N)=O)C=C2c3cccc4[nH]cc(c34)C[C@H]21
REMARK SMILES IDX 2 1 15 2 20 3 9 4 19 5 3 6 4 7 17 8 10 9 18 10 8 11 14 12
REMARK SMILES IDX 1 13 16 14 11 15 13 16 12 17 5 19 7 20 6 21
REMARK H PARENT 15 18 6 22 6 23
ROOT
ATOM      1  N   UNL     1     105.876 118.381 109.918  1.00  0.00    -0.298 NA
ATOM      2  N   UNL     1     101.836 121.859 112.703  1.00  0.00    -0.361 N 
ATOM      3  C   UNL     1     104.792 118.818 110.854  1.00  0.00     0.091 C 
ATOM      4  C   UNL     1     103.430 118.095 110.593  1.00  0.00    -0.026 C 
ATOM      5  C   UNL     1     104.662 120.390 110.826  1.00  0.00     0.061 C 
ATOM      6  C   UNL     1     105.822 116.918 109.715  1.00  0.00     0.102 C 
ATOM      7  C   UNL     1     104.517 116.505 109.014  1.00  0.00     0.115 C 
ATOM      8  C   UNL     1     103.452 120.838 111.572  1.00  0.00    -0.020 A 
ATOM      9  C   UNL     1     102.252 118.611 111.327  1.00  0.00    -0.011 A 
ATOM     10  C   UNL     1     102.378 119.940 111.750  1.00  0.00     0.010 A 
ATOM     11  C   UNL     1     103.315 117.067 109.731  1.00  0.00    -0.007 C 
ATOM     12  C   UNL     1     101.375 120.583 112.457  1.00  0.00     0.046 A 
ATOM     13  C   UNL     1     107.202 118.750 110.421  1.00  0.00     0.106 C 
ATOM     14  C   UNL     1     103.097 122.025 112.169  1.00  0.00     0.087 A 
ATOM     15  C   UNL     1     101.063 117.945 111.652  1.00  0.00     0.009 A 
ATOM     16  C   UNL     1     100.182 119.935 112.784  1.00  0.00     0.027 A 
ATOM     17  C   UNL     1     100.051 118.600 112.366  1.00  0.00     0.003 A 
ATOM     18  H   UNL     1     101.318 122.568 113.202  1.00  0.00     0.166 HD
ENDROOT
BRANCH   7  19
ATOM     19  C   UNL     1     104.423 114.978 108.947  1.00  0.00     0.225 C 
ATOM     20  O   UNL     1     103.534 114.305 109.457  1.00  0.00    -0.275 OA
ATOM     21  N   UNL     1     105.430 114.368 108.247  1.00  0.00    -0.369 N 
ATOM     22  H   UNL     1     105.431 113.356 108.220  1.00  0.00     0.159 HD
ATOM     23  H   UNL     1     106.246 114.865 107.922  1.00  0.00     0.159 HD
ENDBRANCH   7  19
TORSDOF 1
ENDMDL
MODEL 5
REMARK VINA RESULT:    -8.241      2.581      6.385
REMARK INTER + INTRA:          -8.826
REMARK INTER:                  -8.713
REMARK INTRA:                  -0.113
REMARK UNBOUND:                -0.103
REMARK SMILES CN1C[C@H](C(N)=O)C=C2c3cccc4[nH]cc(c34)C[C@H]21
REMARK SMILES IDX 2 1 15 2 20 3 9 4 19 5 3 6 4 7 17 8 10 9 18 10 8 11 14 12
REMARK SMILES IDX 1 13 16 14 11 15 13 16 12 17 5 19 7 20 6 21
REMARK H PARENT 15 18 6 22 6 23
ROOT
ATOM      1  N   UNL     1     104.560 118.338 109.941  1.00  0.00    -0.298 NA
ATOM      2  N   UNL     1     103.992 112.791 107.687  1.00  0.00    -0.361 N 
ATOM      3  C   UNL     1     103.941 117.098 109.375  1.00  0.00     0.091 C 
ATOM      4  C   UNL     1     102.981 116.381 110.380  1.00  0.00    -0.026 C 
ATOM      5  C   UNL     1     105.066 116.143 108.819  1.00  0.00     0.061 C 
ATOM      6  C   UNL     1     103.562 119.106 110.714  1.00  0.00     0.102 C 
ATOM      7  C   UNL     1     103.090 118.315 111.945  1.00  0.00     0.115 C 
ATOM      8  C   UNL     1     104.503 114.812 108.456  1.00  0.00    -0.020 A 
ATOM      9  C   UNL     1     102.488 115.040 109.988  1.00  0.00    -0.011 A 
ATOM     10  C   UNL     1     103.300 114.382 109.056  1.00  0.00     0.010 A 
ATOM     11  C   UNL     1     102.629 116.932 111.558  1.00  0.00    -0.007 C 
ATOM     12  C   UNL     1     102.987 113.123 108.571  1.00  0.00     0.046 A 
ATOM     13  C   UNL     1     105.115 119.192 108.886  1.00  0.00     0.106 C 
ATOM     14  C   UNL     1     104.918 113.810 107.609  1.00  0.00     0.087 A 
ATOM     15  C   UNL     1     101.332 114.374 110.414  1.00  0.00     0.009 A 
ATOM     16  C   UNL     1     101.842 112.443 108.991  1.00  0.00     0.027 A 
ATOM     17  C   UNL     1     101.021 113.099 109.922  1.00  0.00     0.003 A 
ATOM     18  H   UNL     1     104.039 111.922 107.174  1.00  0.00     0.166 HD
ENDROOT
BRANCH   7  19
ATOM     19  C   UNL     1     101.956 119.069 112.645  1.00  0.00     0.225 C 
ATOM     20  O   UNL     1     101.793 119.125 113.859  1.00  0.00    -0.275 OA
ATOM     21  N   UNL     1     101.090 119.720 111.806  1.00  0.00    -0.369 N 
ATOM     22  H   UNL     1     100.299 120.190 112.227  1.00  0.00     0.159 HD
ATOM     23  H   UNL     1     101.108 119.597 110.804  1.00  0.00     0.159 HD
ENDBRANCH   7  19
TORSDOF 1
ENDMDL
MODEL 6
REMARK VINA RESULT:    -8.126      2.282      3.982
REMARK INTER + INTRA:          -8.704
REMARK INTER:                  -8.598
REMARK INTRA:                  -0.106
REMARK UNBOUND:                -0.103
REMARK SMILES CN1C[C@H](C(N)=O)C=C2c3cccc4[nH]cc(c34)C[C@H]21
REMARK SMILES IDX 2 1 15 2 20 3 9 4 19 5 3 6 4 7 17 8 10 9 18 10 8 11 14 12
REMARK SMILES IDX 1 13 16 14 11 15 13 16 12 17 5 19 7 20 6 21
REMARK H PARENT 15 18 6 22 6 23
ROOT
ATOM      1  N   UNL     1     105.608 117.103 109.901  1.00  0.00    -0.298 NA
ATOM      2  N   UNL     1     103.072 121.959 112.381  1.00  0.00    -0.361 N 
ATOM      3  C   UNL     1     104.731 117.954 110.765  1.00  0.00     0.091 C 
ATOM      4  C   UNL     1     103.210 117.790 110.443  1.00  0.00    -0.026 C 
ATOM      5  C   UNL     1     105.209 119.456 110.698  1.00  0.00     0.061 C 
ATOM      6  C   UNL     1     105.012 115.762 109.725  1.00  0.00     0.102 C 
ATOM      7  C   UNL     1     103.681 115.845 108.961  1.00  0.00     0.115 C 
ATOM      8  C   UNL     1     104.228 120.358 111.364  1.00  0.00    -0.020 A 
ATOM      9  C   UNL     1     102.284 118.743 111.098  1.00  0.00    -0.011 A 
ATOM     10  C   UNL     1     102.886 119.942 111.500  1.00  0.00     0.010 A 
ATOM     11  C   UNL     1     102.751 116.848 109.597  1.00  0.00    -0.007 C 
ATOM     12  C   UNL     1     102.173 120.943 112.136  1.00  0.00     0.046 A 
ATOM     13  C   UNL     1     106.952 116.963 110.470  1.00  0.00     0.106 C 
ATOM     14  C   UNL     1     104.324 121.615 111.916  1.00  0.00     0.087 A 
ATOM     15  C   UNL     1     100.919 118.589 111.369  1.00  0.00     0.009 A 
ATOM     16  C   UNL     1     100.810 120.808 112.408  1.00  0.00     0.027 A 
ATOM     17  C   UNL     1     100.200 119.607 112.011  1.00  0.00     0.003 A 
ATOM     18  H   UNL     1     102.840 122.831 112.835  1.00  0.00     0.166 HD
ENDROOT
BRANCH   7  19
ATOM     19  C   UNL     1     103.017 114.466 108.919  1.00  0.00     0.225 C 
ATOM     20  O   UNL     1     101.898 114.211 109.350  1.00  0.00    -0.275 OA
ATOM     21  N   UNL     1     103.771 113.479 108.341  1.00  0.00    -0.369 N 
ATOM     22  H   UNL     1     103.388 112.542 108.338  1.00  0.00     0.159 HD
ATOM     23  H   UNL     1     104.741 113.611 108.091  1.00  0.00     0.159 HD
ENDBRANCH   7  19
TORSDOF 1
ENDMDL
MODEL 7
REMARK VINA RESULT:    -8.125      2.291      3.919
REMARK INTER + INTRA:          -8.703
REMARK INTER:                  -8.604
REMARK INTRA:                  -0.099
REMARK UNBOUND:                -0.103
REMARK SMILES CN1C[C@H](C(N)=O)C=C2c3cccc4[nH]cc(c34)C[C@H]21
REMARK SMILES IDX 2 1 15 2 20 3 9 4 19 5 3 6 4 7 17 8 10 9 18 10 8 11 14 12
REMARK SMILES IDX 1 13 16 14 11 15 13 16 12 17 5 19 7 20 6 21
REMARK H PARENT 15 18 6 22 6 23
ROOT
ATOM      1  N   UNL     1     103.329 114.551 108.823  1.00  0.00    -0.298 NA
ATOM      2  N   UNL     1     105.582 120.039 109.812  1.00  0.00    -0.361 N 
ATOM      3  C   UNL     1     103.889 115.741 109.536  1.00  0.00     0.091 C 
ATOM      4  C   UNL     1     102.876 116.389 110.535  1.00  0.00    -0.026 C 
ATOM      5  C   UNL     1     104.458 116.775 108.488  1.00  0.00     0.061 C 
ATOM      6  C   UNL     1     102.545 113.714 109.755  1.00  0.00     0.102 C 
ATOM      7  C   UNL     1     101.310 114.471 110.272  1.00  0.00     0.115 C 
ATOM      8  C   UNL     1     104.817 118.062 109.149  1.00  0.00    -0.020 A 
ATOM      9  C   UNL     1     103.264 117.690 111.127  1.00  0.00    -0.011 A 
ATOM     10  C   UNL     1     104.205 118.404 110.374  1.00  0.00     0.010 A 
ATOM     11  C   UNL     1     101.694 115.816 110.835  1.00  0.00    -0.007 C 
ATOM     12  C   UNL     1     104.688 119.636 110.782  1.00  0.00     0.046 A 
ATOM     13  C   UNL     1     104.388 113.738 108.218  1.00  0.00     0.106 C 
ATOM     14  C   UNL     1     105.668 119.089 108.816  1.00  0.00     0.087 A 
ATOM     15  C   UNL     1     102.827 118.272 112.324  1.00  0.00     0.009 A 
ATOM     16  C   UNL     1     104.257 120.232 111.969  1.00  0.00     0.027 A 
ATOM     17  C   UNL     1     103.318 119.520 112.732  1.00  0.00     0.003 A 
ATOM     18  H   UNL     1     106.096 120.908 109.833  1.00  0.00     0.166 HD
ENDROOT
BRANCH   7  19
ATOM     19  C   UNL     1     100.598 113.638 111.341  1.00  0.00     0.225 C 
ATOM     20  O   UNL     1     101.142 113.136 112.319  1.00  0.00    -0.275 OA
ATOM     21  N   UNL     1      99.252 113.475 111.147  1.00  0.00    -0.369 N 
ATOM     22  H   UNL     1      98.754 112.890 111.805  1.00  0.00     0.159 HD
ATOM     23  H   UNL     1      98.787 113.758 110.296  1.00  0.00     0.159 HD
ENDBRANCH   7  19
TORSDOF 1
ENDMDL
MODEL 8
REMARK VINA RESULT:    -8.110      2.925      4.753
REMARK INTER + INTRA:          -8.687
REMARK INTER:                  -8.588
REMARK INTRA:                  -0.100
REMARK UNBOUND:                -0.103
REMARK SMILES CN1C[C@H](C(N)=O)C=C2c3cccc4[nH]cc(c34)C[C@H]21
REMARK SMILES IDX 2 1 15 2 20 3 9 4 19 5 3 6 4 7 17 8 10 9 18 10 8 11 14 12
REMARK SMILES IDX 1 13 16 14 11 15 13 16 12 17 5 19 7 20 6 21
REMARK H PARENT 15 18 6 22 6 23
ROOT
ATOM      1  N   UNL     1     103.199 116.688 110.851  1.00  0.00    -0.298 NA
ATOM      2  N   UNL     1      98.976 120.417 112.959  1.00  0.00    -0.361 N 
ATOM      3  C   UNL     1     102.347 117.906 111.023  1.00  0.00     0.091 C 
ATOM      4  C   UNL     1     103.155 119.156 111.504  1.00  0.00    -0.026 C 
ATOM      5  C   UNL     1     101.121 117.575 111.959  1.00  0.00     0.061 C 
ATOM      6  C   UNL     1     104.488 117.045 110.222  1.00  0.00     0.102 C 
ATOM      7  C   UNL     1     105.312 117.968 111.135  1.00  0.00     0.115 C 
ATOM      8  C   UNL     1     100.382 118.816 112.328  1.00  0.00    -0.020 A 
ATOM      9  C   UNL     1     102.367 120.345 111.902  1.00  0.00    -0.011 A 
ATOM     10  C   UNL     1     101.047 120.059 112.275  1.00  0.00     0.010 A 
ATOM     11  C   UNL     1     104.499 119.158 111.580  1.00  0.00    -0.007 C 
ATOM     12  C   UNL     1     100.165 121.052 112.668  1.00  0.00     0.046 A 
ATOM     13  C   UNL     1     102.528 115.672 110.035  1.00  0.00     0.106 C 
ATOM     14  C   UNL     1      99.097 119.058 112.756  1.00  0.00     0.087 A 
ATOM     15  C   UNL     1     102.766 121.687 111.936  1.00  0.00     0.009 A 
ATOM     16  C   UNL     1     100.549 122.393 112.713  1.00  0.00     0.027 A 
ATOM     17  C   UNL     1     101.869 122.688 112.336  1.00  0.00     0.003 A 
ATOM     18  H   UNL     1      98.140 120.884 113.277  1.00  0.00     0.166 HD
ENDROOT
BRANCH   7  19
ATOM     19  C   UNL     1     106.571 118.436 110.402  1.00  0.00     0.225 C 
ATOM     20  O   UNL     1     106.893 118.094 109.269  1.00  0.00    -0.275 OA
ATOM     21  N   UNL     1     107.361 119.306 111.106  1.00  0.00    -0.369 N 
ATOM     22  H   UNL     1     108.228 119.602 110.675  1.00  0.00     0.159 HD
ATOM     23  H   UNL     1     107.206 119.514 112.082  1.00  0.00     0.159 HD
ENDBRANCH   7  19
TORSDOF 1
ENDMDL
MODEL 9
REMARK VINA RESULT:    -8.099      3.017      6.115
REMARK INTER + INTRA:          -8.676
REMARK INTER:                  -8.553
REMARK INTRA:                  -0.122
REMARK UNBOUND:                -0.103
REMARK SMILES CN1C[C@H](C(N)=O)C=C2c3cccc4[nH]cc(c34)C[C@H]21
REMARK SMILES IDX 2 1 15 2 20 3 9 4 19 5 3 6 4 7 17 8 10 9 18 10 8 11 14 12
REMARK SMILES IDX 1 13 16 14 11 15 13 16 12 17 5 19 7 20 6 21
REMARK H PARENT 15 18 6 22 6 23
ROOT
ATOM      1  N   UNL     1     105.218 118.070 109.614  1.00  0.00    -0.298 NA
ATOM      2  N   UNL     1     101.119 113.785 110.618  1.00  0.00    -0.361 N 
ATOM      3  C   UNL     1     103.897 117.399 109.820  1.00  0.00     0.091 C 
ATOM      4  C   UNL     1     103.163 117.876 111.115  1.00  0.00    -0.026 C 
ATOM      5  C   UNL     1     104.077 115.833 109.765  1.00  0.00     0.061 C 
ATOM      6  C   UNL     1     105.123 119.508 109.943  1.00  0.00     0.102 C 
ATOM      7  C   UNL     1     104.813 119.713 111.436  1.00  0.00     0.115 C 
ATOM      8  C   UNL     1     102.829 115.137 110.186  1.00  0.00    -0.020 A 
ATOM      9  C   UNL     1     101.953 117.120 111.513  1.00  0.00    -0.011 A 
ATOM     10  C   UNL     1     101.901 115.816 111.005  1.00  0.00     0.010 A 
ATOM     11  C   UNL     1     103.609 118.909 111.856  1.00  0.00    -0.007 C 
ATOM     12  C   UNL     1     100.838 114.968 111.268  1.00  0.00     0.046 A 
ATOM     13  C   UNL     1     105.689 117.921 108.234  1.00  0.00     0.106 C 
ATOM     14  C   UNL     1     102.326 113.876 109.957  1.00  0.00     0.087 A 
ATOM     15  C   UNL     1     100.877 117.543 112.302  1.00  0.00     0.009 A 
ATOM     16  C   UNL     1      99.760 115.373 112.058  1.00  0.00     0.027 A 
ATOM     17  C   UNL     1      99.804 116.681 112.568  1.00  0.00     0.003 A 
ATOM     18  H   UNL     1     100.523 112.970 110.629  1.00  0.00     0.166 HD
ENDROOT
BRANCH   7  19
ATOM     19  C   UNL     1     104.578 121.199 111.719  1.00  0.00     0.225 C 
ATOM     20  O   UNL     1     105.452 122.004 112.023  1.00  0.00    -0.275 OA
ATOM     21  N   UNL     1     103.277 121.611 111.602  1.00  0.00    -0.369 N 
ATOM     22  H   UNL     1     103.072 122.576 111.828  1.00  0.00     0.159 HD
ATOM     23  H   UNL     1     102.510 120.965 111.481  1.00  0.00     0.159 HD
ENDBRANCH   7  19
TORSDOF 1
ENDMDL
MODEL 10
REMARK VINA RESULT:    -8.019      3.168      4.820
REMARK INTER + INTRA:          -8.590
REMARK INTER:                  -8.487
REMARK INTRA:                  -0.103
REMARK UNBOUND:                -0.103
REMARK SMILES CN1C[C@H](C(N)=O)C=C2c3cccc4[nH]cc(c34)C[C@H]21
REMARK SMILES IDX 2 1 15 2 20 3 9 4 19 5 3 6 4 7 17 8 10 9 18 10 8 11 14 12
REMARK SMILES IDX 1 13 16 14 11 15 13 16 12 17 5 19 7 20 6 21
REMARK H PARENT 15 18 6 22 6 23
ROOT
ATOM      1  N   UNL     1     101.365 113.871 110.298  1.00  0.00    -0.298 NA
ATOM      2  N   UNL     1     104.911 118.569 109.063  1.00  0.00    -0.361 N 
ATOM      3  C   UNL     1     102.303 115.022 110.486  1.00  0.00     0.091 C 
ATOM      4  C   UNL     1     101.678 116.192 111.312  1.00  0.00    -0.026 C 
ATOM      5  C   UNL     1     102.860 115.493 109.087  1.00  0.00     0.061 C 
ATOM      6  C   UNL     1     100.622 113.603 111.547  1.00  0.00     0.102 C 
ATOM      7  C   UNL     1      99.712 114.787 111.913  1.00  0.00     0.115 C 
ATOM      8  C   UNL     1     103.616 116.771 109.217  1.00  0.00    -0.020 A 
ATOM      9  C   UNL     1     102.452 117.454 111.370  1.00  0.00    -0.011 A 
ATOM     10  C   UNL     1     103.354 117.622 110.312  1.00  0.00     0.010 A 
ATOM     11  C   UNL     1     100.486 116.082 111.928  1.00  0.00    -0.007 C 
ATOM     12  C   UNL     1     104.165 118.739 110.210  1.00  0.00     0.046 A 
ATOM     13  C   UNL     1     102.078 112.657 109.890  1.00  0.00     0.106 C 
ATOM     14  C   UNL     1     104.586 117.377 108.451  1.00  0.00     0.087 A 
ATOM     15  C   UNL     1     102.402 118.467 112.336  1.00  0.00     0.009 A 
ATOM     16  C   UNL     1     104.123 119.761 111.161  1.00  0.00     0.027 A 
ATOM     17  C   UNL     1     103.224 119.597 112.228  1.00  0.00     0.003 A 
ATOM     18  H   UNL     1     105.596 119.229 108.722  1.00  0.00     0.166 HD
ENDROOT
BRANCH   7  19
ATOM     19  C   UNL     1      99.067 114.544 113.280  1.00  0.00     0.225 C 
ATOM     20  O   UNL     1      98.467 115.390 113.935  1.00  0.00    -0.275 OA
ATOM     21  N   UNL     1      99.191 113.267 113.760  1.00  0.00    -0.369 N 
ATOM     22  H   UNL     1      98.820 113.078 114.682  1.00  0.00     0.159 HD
ATOM     23  H   UNL     1      99.782 112.576 113.320  1.00  0.00     0.159 HD
ENDBRANCH   7  19
TORSDOF 1
ENDMDL
MODEL 11
REMARK VINA RESULT:    -7.932      2.368      5.240
REMARK INTER + INTRA:          -8.499
REMARK INTER:                  -8.396
REMARK INTRA:                  -0.103
REMARK UNBOUND:                -0.103
REMARK SMILES CN1C[C@H](C(N)=O)C=C2c3cccc4[nH]cc(c34)C[C@H]21
REMARK SMILES IDX 2 1 15 2 20 3 9 4 19 5 3 6 4 7 17 8 10 9 18 10 8 11 14 12
REMARK SMILES IDX 1 13 16 14 11 15 13 16 12 17 5 19 7 20 6 21
REMARK H PARENT 15 18 6 22 6 23
ROOT
ATOM      1  N   UNL     1     102.916 118.493 111.613  1.00  0.00    -0.298 NA
ATOM      2  N   UNL     1      99.682 113.431 111.322  1.00  0.00    -0.361 N 
ATOM      3  C   UNL     1     102.570 117.039 111.535  1.00  0.00     0.091 C 
ATOM      4  C   UNL     1     103.040 116.369 110.203  1.00  0.00    -0.026 C 
ATOM      5  C   UNL     1     101.029 116.839 111.807  1.00  0.00     0.061 C 
ATOM      6  C   UNL     1     104.277 118.728 111.087  1.00  0.00     0.102 C 
ATOM      7  C   UNL     1     104.354 118.392 109.588  1.00  0.00     0.115 C 
ATOM      8  C   UNL     1     100.614 115.438 111.518  1.00  0.00    -0.020 A 
ATOM      9  C   UNL     1     102.560 114.991 109.945  1.00  0.00    -0.011 A 
ATOM     10  C   UNL     1     101.387 114.656 110.633  1.00  0.00     0.010 A 
ATOM     11  C   UNL     1     103.824 117.008 109.313  1.00  0.00    -0.007 C 
ATOM     12  C   UNL     1     100.802 113.406 110.518  1.00  0.00     0.046 A 
ATOM     13  C   UNL     1     102.838 118.992 112.989  1.00  0.00     0.106 C 
ATOM     14  C   UNL     1      99.558 114.660 111.934  1.00  0.00     0.087 A 
ATOM     15  C   UNL     1     103.129 114.006 109.129  1.00  0.00     0.009 A 
ATOM     16  C   UNL     1     101.353 112.415 109.704  1.00  0.00     0.027 A 
ATOM     17  C   UNL     1     102.531 112.743 109.014  1.00  0.00     0.003 A 
ATOM     18  H   UNL     1      99.045 112.656 111.440  1.00  0.00     0.166 HD
ENDROOT
BRANCH   7  19
ATOM     19  C   UNL     1     105.802 118.507 109.103  1.00  0.00     0.225 C 
ATOM     20  O   UNL     1     106.215 118.107 108.020  1.00  0.00    -0.275 OA
ATOM     21  N   UNL     1     106.659 119.115 109.981  1.00  0.00    -0.369 N 
ATOM     22  H   UNL     1     107.636 119.167 109.719  1.00  0.00     0.159 HD
ATOM     23  H   UNL     1     106.396 119.343 110.930  1.00  0.00     0.159 HD
ENDBRANCH   7  19
TORSDOF 1
ENDMDL
MODEL 12
REMARK VINA RESULT:    -7.847      2.451      5.263
REMARK INTER + INTRA:          -8.409
REMARK INTER:                  -8.312
REMARK INTRA:                  -0.097
REMARK UNBOUND:                -0.103
REMARK SMILES CN1C[C@H](C(N)=O)C=C2c3cccc4[nH]cc(c34)C[C@H]21
REMARK SMILES IDX 2 1 15 2 20 3 9 4 19 5 3 6 4 7 17 8 10 9 18 10 8 11 14 12
REMARK SMILES IDX 1 13 16 14 11 15 13 16 12 17 5 19 7 20 6 21
REMARK H PARENT 15 18 6 22 6 23
ROOT
ATOM      1  N   UNL     1     104.781 115.779 108.391  1.00  0.00    -0.298 NA
ATOM      2  N   UNL     1      99.941 113.166 110.824  1.00  0.00    -0.361 N 
ATOM      3  C   UNL     1     103.404 115.594 108.947  1.00  0.00     0.091 C 
ATOM      4  C   UNL     1     103.161 116.403 110.263  1.00  0.00    -0.026 C 
ATOM      5  C   UNL     1     103.095 114.055 109.112  1.00  0.00     0.061 C 
ATOM      6  C   UNL     1     105.193 117.194 108.496  1.00  0.00     0.102 C 
ATOM      7  C   UNL     1     105.309 117.628 109.967  1.00  0.00     0.115 C 
ATOM      8  C   UNL     1     101.828 113.844 109.867  1.00  0.00    -0.020 A 
ATOM      9  C   UNL     1     101.906 116.119 110.997  1.00  0.00    -0.011 A 
ATOM     10  C   UNL     1     101.356 114.860 110.725  1.00  0.00     0.010 A 
ATOM     11  C   UNL     1     104.051 117.300 110.730  1.00  0.00    -0.007 C 
ATOM     12  C   UNL     1     100.180 114.431 111.316  1.00  0.00     0.046 A 
ATOM     13  C   UNL     1     104.857 115.357 106.989  1.00  0.00     0.106 C 
ATOM     14  C   UNL     1     100.937 112.799 109.943  1.00  0.00     0.087 A 
ATOM     15  C   UNL     1     101.215 116.940 111.896  1.00  0.00     0.009 A 
ATOM     16  C   UNL     1      99.481 115.236 112.219  1.00  0.00     0.027 A 
ATOM     17  C   UNL     1     100.025 116.501 112.493  1.00  0.00     0.003 A 
ATOM     18  H   UNL     1      99.150 112.592 111.078  1.00  0.00     0.166 HD
ENDROOT
BRANCH   7  19
ATOM     19  C   UNL     1     105.595 119.130 110.046  1.00  0.00     0.225 C 
ATOM     20  O   UNL     1     105.074 119.983 109.336  1.00  0.00    -0.275 OA
ATOM     21  N   UNL     1     106.506 119.496 111.001  1.00  0.00    -0.369 N 
ATOM     22  H   UNL     1     106.758 120.475 111.053  1.00  0.00     0.159 HD
ATOM     23  H   UNL     1     107.053 118.822 111.518  1.00  0.00     0.159 HD
ENDBRANCH   7  19
TORSDOF 1
ENDMDL
MODEL 13
REMARK VINA RESULT:    -7.830      2.185      2.799
REMARK INTER + INTRA:          -8.390
REMARK INTER:                  -8.292
REMARK INTRA:                  -0.098
REMARK UNBOUND:                -0.103
REMARK SMILES CN1C[C@H](C(N)=O)C=C2c3cccc4[nH]cc(c34)C[C@H]21
REMARK SMILES IDX 2 1 15 2 20 3 9 4 19 5 3 6 4 7 17 8 10 9 18 10 8 11 14 12
REMARK SMILES IDX 1 13 16 14 11 15 13 16 12 17 5 19 7 20 6 21
REMARK H PARENT 15 18 6 22 6 23
ROOT
ATOM      1  N   UNL     1     102.192 115.327 111.049  1.00  0.00    -0.298 NA
ATOM      2  N   UNL     1     100.997 120.905 112.956  1.00  0.00    -0.361 N 
ATOM      3  C   UNL     1     102.095 116.820 111.080  1.00  0.00     0.091 C 
ATOM      4  C   UNL     1     103.491 117.524 111.081  1.00  0.00    -0.026 C 
ATOM      5  C   UNL     1     101.183 117.274 112.284  1.00  0.00     0.061 C 
ATOM      6  C   UNL     1     103.257 114.899 110.118  1.00  0.00     0.102 C 
ATOM      7  C   UNL     1     104.638 115.366 110.606  1.00  0.00     0.115 C 
ATOM      8  C   UNL     1     101.247 118.750 112.476  1.00  0.00    -0.020 A 
ATOM      9  C   UNL     1     103.500 118.986 111.321  1.00  0.00    -0.011 A 
ATOM     10  C   UNL     1     102.369 119.461 111.998  1.00  0.00     0.010 A 
ATOM     11  C   UNL     1     104.640 116.846 110.897  1.00  0.00    -0.007 C 
ATOM     12  C   UNL     1     102.205 120.803 112.299  1.00  0.00     0.046 A 
ATOM     13  C   UNL     1     100.923 114.713 110.647  1.00  0.00     0.106 C 
ATOM     14  C   UNL     1     100.407 119.663 113.069  1.00  0.00     0.087 A 
ATOM     15  C   UNL     1     104.469 119.928 110.953  1.00  0.00     0.009 A 
ATOM     16  C   UNL     1     103.165 121.753 111.944  1.00  0.00     0.027 A 
ATOM     17  C   UNL     1     104.299 121.284 111.262  1.00  0.00     0.003 A 
ATOM     18  H   UNL     1     100.606 121.768 113.305  1.00  0.00     0.166 HD
ENDROOT
BRANCH   7  19
ATOM     19  C   UNL     1     105.701 115.035 109.555  1.00  0.00     0.225 C 
ATOM     20  O   UNL     1     105.468 114.755 108.384  1.00  0.00    -0.275 OA
ATOM     21  N   UNL     1     106.994 115.076 110.006  1.00  0.00    -0.369 N 
ATOM     22  H   UNL     1     107.723 114.816 109.354  1.00  0.00     0.159 HD
ATOM     23  H   UNL     1     107.226 115.174 110.984  1.00  0.00     0.159 HD
ENDBRANCH   7  19
TORSDOF 1
ENDMDL
MODEL 14
REMARK VINA RESULT:    -7.791      2.893      4.000
REMARK INTER + INTRA:          -8.349
REMARK INTER:                  -8.243
REMARK INTRA:                  -0.106
REMARK UNBOUND:                -0.103
REMARK SMILES CN1C[C@H](C(N)=O)C=C2c3cccc4[nH]cc(c34)C[C@H]21
REMARK SMILES IDX 2 1 15 2 20 3 9 4 19 5 3 6 4 7 17 8 10 9 18 10 8 11 14 12
REMARK SMILES IDX 1 13 16 14 11 15 13 16 12 17 5 19 7 20 6 21
REMARK H PARENT 15 18 6 22 6 23
ROOT
ATOM      1  N   UNL     1     100.554 117.314 112.665  1.00  0.00    -0.298 NA
ATOM      2  N   UNL     1     105.479 120.606 111.625  1.00  0.00    -0.361 N 
ATOM      3  C   UNL     1     101.670 117.998 111.939  1.00  0.00     0.091 C 
ATOM      4  C   UNL     1     102.650 116.998 111.243  1.00  0.00    -0.026 C 
ATOM      5  C   UNL     1     102.408 118.997 112.911  1.00  0.00     0.061 C 
ATOM      6  C   UNL     1     100.039 116.180 111.869  1.00  0.00     0.102 C 
ATOM      7  C   UNL     1     101.113 115.093 111.698  1.00  0.00     0.115 C 
ATOM      8  C   UNL     1     103.655 119.524 112.288  1.00  0.00    -0.020 A 
ATOM      9  C   UNL     1     103.896 117.570 110.680  1.00  0.00    -0.011 A 
ATOM     10  C   UNL     1     104.279 118.786 111.259  1.00  0.00     0.010 A 
ATOM     11  C   UNL     1     102.399 115.677 111.169  1.00  0.00    -0.007 C 
ATOM     12  C   UNL     1     105.414 119.467 110.851  1.00  0.00     0.046 A 
ATOM     13  C   UNL     1      99.454 118.239 112.956  1.00  0.00     0.106 C 
ATOM     14  C   UNL     1     104.416 120.650 112.502  1.00  0.00     0.087 A 
ATOM     15  C   UNL     1     104.708 117.062 109.659  1.00  0.00     0.009 A 
ATOM     16  C   UNL     1     106.237 118.971 109.837  1.00  0.00     0.027 A 
ATOM     17  C   UNL     1     105.856 117.754 109.250  1.00  0.00     0.003 A 
ATOM     18  H   UNL     1     106.206 121.303 111.558  1.00  0.00     0.166 HD
ENDROOT
BRANCH   7  19
ATOM     19  C   UNL     1     100.603 114.002 110.753  1.00  0.00     0.225 C 
ATOM     20  O   UNL     1     101.196 113.601 109.757  1.00  0.00    -0.275 OA
ATOM     21  N   UNL     1      99.392 113.462 111.093  1.00  0.00    -0.369 N 
ATOM     22  H   UNL     1      98.997 112.771 110.467  1.00  0.00     0.159 HD
ATOM     23  H   UNL     1      98.810 113.846 111.824  1.00  0.00     0.159 HD
ENDBRANCH   7  19
TORSDOF 1
ENDMDL
MODEL 15
REMARK VINA RESULT:    -7.772      3.695      6.285
REMARK INTER + INTRA:          -8.329
REMARK INTER:                  -8.215
REMARK INTRA:                  -0.114
REMARK UNBOUND:                -0.103
REMARK SMILES CN1C[C@H](C(N)=O)C=C2c3cccc4[nH]cc(c34)C[C@H]21
REMARK SMILES IDX 2 1 15 2 20 3 9 4 19 5 3 6 4 7 17 8 10 9 18 10 8 11 14 12
REMARK SMILES IDX 1 13 16 14 11 15 13 16 12 17 5 19 7 20 6 21
REMARK H PARENT 15 18 6 22 6 23
ROOT
ATOM      1  N   UNL     1     100.568 118.348 112.109  1.00  0.00    -0.298 NA
ATOM      2  N   UNL     1     105.427 115.618 109.848  1.00  0.00    -0.361 N 
ATOM      3  C   UNL     1     101.990 117.923 111.919  1.00  0.00     0.091 C 
ATOM      4  C   UNL     1     102.934 119.104 111.520  1.00  0.00    -0.026 C 
ATOM      5  C   UNL     1     102.058 116.719 110.902  1.00  0.00     0.061 C 
ATOM      6  C   UNL     1     100.507 119.639 112.825  1.00  0.00     0.102 C 
ATOM      7  C   UNL     1     101.138 120.764 111.988  1.00  0.00     0.115 C 
ATOM      8  C   UNL     1     103.468 116.421 110.521  1.00  0.00    -0.020 A 
ATOM      9  C   UNL     1     104.310 118.746 111.107  1.00  0.00    -0.011 A 
ATOM     10  C   UNL     1     104.446 117.431 110.647  1.00  0.00     0.010 A 
ATOM     11  C   UNL     1     102.523 120.387 111.526  1.00  0.00    -0.007 C 
ATOM     12  C   UNL     1     105.664 116.923 110.227  1.00  0.00     0.046 A 
ATOM     13  C   UNL     1      99.802 117.345 112.856  1.00  0.00     0.106 C 
ATOM     14  C   UNL     1     104.096 115.303 110.022  1.00  0.00     0.087 A 
ATOM     15  C   UNL     1     105.465 119.539 111.132  1.00  0.00     0.009 A 
ATOM     16  C   UNL     1     106.823 117.702 110.241  1.00  0.00     0.027 A 
ATOM     17  C   UNL     1     106.695 119.021 110.705  1.00  0.00     0.003 A 
ATOM     18  H   UNL     1     106.132 114.988 109.492  1.00  0.00     0.166 HD
ENDROOT
BRANCH   7  19
ATOM     19  C   UNL     1     101.191 122.056 112.809  1.00  0.00     0.225 C 
ATOM     20  O   UNL     1     100.304 122.451 113.557  1.00  0.00    -0.275 OA
ATOM     21  N   UNL     1     102.342 122.785 112.665  1.00  0.00    -0.369 N 
ATOM     22  H   UNL     1     102.397 123.669 113.154  1.00  0.00     0.159 HD
ATOM     23  H   UNL     1     103.040 122.568 111.968  1.00  0.00     0.159 HD
ENDBRANCH   7  19
TORSDOF 1
ENDMDL
MODEL 16
REMARK VINA RESULT:    -7.617      3.369      5.414
REMARK INTER + INTRA:          -8.165
REMARK INTER:                  -8.058
REMARK INTRA:                  -0.107
REMARK UNBOUND:                -0.103
REMARK SMILES CN1C[C@H](C(N)=O)C=C2c3cccc4[nH]cc(c34)C[C@H]21
REMARK SMILES IDX 2 1 15 2 20 3 9 4 19 5 3 6 4 7 17 8 10 9 18 10 8 11 14 12
REMARK SMILES IDX 1 13 16 14 11 15 13 16 12 17 5 19 7 20 6 21
REMARK H PARENT 15 18 6 22 6 23
ROOT
ATOM      1  N   UNL     1     104.057 120.737 111.224  1.00  0.00    -0.298 NA
ATOM      2  N   UNL     1      99.119 117.993 113.289  1.00  0.00    -0.361 N 
ATOM      3  C   UNL     1     103.162 119.692 111.814  1.00  0.00     0.091 C 
ATOM      4  C   UNL     1     103.041 118.414 110.922  1.00  0.00    -0.026 C 
ATOM      5  C   UNL     1     101.761 120.324 112.167  1.00  0.00     0.061 C 
ATOM      6  C   UNL     1     105.257 120.111 110.630  1.00  0.00     0.102 C 
ATOM      7  C   UNL     1     104.880 119.209 109.443  1.00  0.00     0.115 C 
ATOM      8  C   UNL     1     100.780 119.268 112.546  1.00  0.00    -0.020 A 
ATOM      9  C   UNL     1     102.019 117.419 111.320  1.00  0.00    -0.011 A 
ATOM     10  C   UNL     1     100.981 117.945 112.100  1.00  0.00     0.010 A 
ATOM     11  C   UNL     1     103.806 118.224 109.830  1.00  0.00    -0.007 C 
ATOM     12  C   UNL     1      99.944 117.156 112.568  1.00  0.00     0.046 A 
ATOM     13  C   UNL     1     104.472 121.721 112.227  1.00  0.00     0.106 C 
ATOM     14  C   UNL     1      99.618 119.279 113.282  1.00  0.00     0.087 A 
ATOM     15  C   UNL     1     101.971 116.050 111.029  1.00  0.00     0.009 A 
ATOM     16  C   UNL     1      99.879 115.791 112.282  1.00  0.00     0.027 A 
ATOM     17  C   UNL     1     100.918 115.256 111.503  1.00  0.00     0.003 A 
ATOM     18  H   UNL     1      98.270 117.702 113.752  1.00  0.00     0.166 HD
ENDROOT
BRANCH   7  19
ATOM     19  C   UNL     1     106.120 118.465 108.941  1.00  0.00     0.225 C 
ATOM     20  O   UNL     1     106.252 117.998 107.815  1.00  0.00    -0.275 OA
ATOM     21  N   UNL     1     107.133 118.345 109.856  1.00  0.00    -0.369 N 
ATOM     22  H   UNL     1     107.951 117.818 109.578  1.00  0.00     0.159 HD
ATOM     23  H   UNL     1     107.021 118.598 110.827  1.00  0.00     0.159 HD
ENDBRANCH   7  19
TORSDOF 1
ENDMDL
MODEL 17
REMARK VINA RESULT:    -7.543      2.662      5.695
REMARK INTER + INTRA:          -8.087
REMARK INTER:                  -7.965
REMARK INTRA:                  -0.122
REMARK UNBOUND:                -0.103
REMARK SMILES CN1C[C@H](C(N)=O)C=C2c3cccc4[nH]cc(c34)C[C@H]21
REMARK SMILES IDX 2 1 15 2 20 3 9 4 19 5 3 6 4 7 17 8 10 9 18 10 8 11 14 12
REMARK SMILES IDX 1 13 16 14 11 15 13 16 12 17 5 19 7 20 6 21
REMARK H PARENT 15 18 6 22 6 23
ROOT
ATOM      1  N   UNL     1     102.075 118.642 112.472  1.00  0.00    -0.298 NA
ATOM      2  N   UNL     1     101.714 113.316 109.701  1.00  0.00    -0.361 N 
ATOM      3  C   UNL     1     102.465 117.308 111.917  1.00  0.00     0.091 C 
ATOM      4  C   UNL     1     103.523 117.409 110.770  1.00  0.00    -0.026 C 
ATOM      5  C   UNL     1     101.175 116.508 111.487  1.00  0.00     0.061 C 
ATOM      6  C   UNL     1     103.263 119.510 112.612  1.00  0.00     0.102 C 
ATOM      7  C   UNL     1     103.879 119.828 111.239  1.00  0.00     0.115 C 
ATOM      8  C   UNL     1     101.538 115.278 110.729  1.00  0.00    -0.020 A 
ATOM      9  C   UNL     1     103.812 116.165 110.019  1.00  0.00    -0.011 A 
ATOM     10  C   UNL     1     102.786 115.212 110.074  1.00  0.00     0.010 A 
ATOM     11  C   UNL     1     104.133 118.567 110.453  1.00  0.00    -0.007 C 
ATOM     12  C   UNL     1     102.889 113.987 109.437  1.00  0.00     0.046 A 
ATOM     13  C   UNL     1     101.417 118.511 113.775  1.00  0.00     0.106 C 
ATOM     14  C   UNL     1     100.886 114.091 110.485  1.00  0.00     0.087 A 
ATOM     15  C   UNL     1     104.961 115.829 109.293  1.00  0.00     0.009 A 
ATOM     16  C   UNL     1     104.026 113.639 108.703  1.00  0.00     0.027 A 
ATOM     17  C   UNL     1     105.060 114.588 108.648  1.00  0.00     0.003 A 
ATOM     18  H   UNL     1     101.495 112.390 109.363  1.00  0.00     0.166 HD
ENDROOT
BRANCH   7  19
ATOM     19  C   UNL     1     105.185 120.605 111.423  1.00  0.00     0.225 C 
ATOM     20  O   UNL     1     105.261 121.801 111.683  1.00  0.00    -0.275 OA
ATOM     21  N   UNL     1     106.326 119.860 111.283  1.00  0.00    -0.369 N 
ATOM     22  H   UNL     1     107.211 120.347 111.349  1.00  0.00     0.159 HD
ATOM     23  H   UNL     1     106.316 118.909 110.945  1.00  0.00     0.159 HD
ENDBRANCH   7  19
TORSDOF 1
ENDMDL
MODEL 18
REMARK VINA RESULT:    -7.531      9.200     11.210
REMARK INTER + INTRA:          -8.075
REMARK INTER:                  -7.968
REMARK INTRA:                  -0.107
REMARK UNBOUND:                -0.103
REMARK SMILES CN1C[C@H](C(N)=O)C=C2c3cccc4[nH]cc(c34)C[C@H]21
REMARK SMILES IDX 2 1 15 2 20 3 9 4 19 5 3 6 4 7 17 8 10 9 18 10 8 11 14 12
REMARK SMILES IDX 1 13 16 14 11 15 13 16 12 17 5 19 7 20 6 21
REMARK H PARENT 15 18 6 22 6 23
ROOT
ATOM      1  N   UNL     1      94.615 113.799 115.802  1.00  0.00    -0.298 NA
ATOM      2  N   UNL     1      92.475 118.508 118.871  1.00  0.00    -0.361 N 
ATOM      3  C   UNL     1      94.288 115.209 116.180  1.00  0.00     0.091 C 
ATOM      4  C   UNL     1      95.556 116.075 116.474  1.00  0.00    -0.026 C 
ATOM      5  C   UNL     1      93.254 115.219 117.371  1.00  0.00     0.061 C 
ATOM      6  C   UNL     1      95.781 113.765 114.895  1.00  0.00     0.102 C 
ATOM      7  C   UNL     1      97.046 114.280 115.602  1.00  0.00     0.115 C 
ATOM      8  C   UNL     1      93.079 116.596 117.914  1.00  0.00    -0.020 A 
ATOM      9  C   UNL     1      95.326 117.417 117.056  1.00  0.00    -0.011 A 
ATOM     10  C   UNL     1      94.101 117.550 117.722  1.00  0.00     0.010 A 
ATOM     11  C   UNL     1      96.804 115.627 116.236  1.00  0.00    -0.007 C 
ATOM     12  C   UNL     1      93.717 118.739 118.319  1.00  0.00     0.046 A 
ATOM     13  C   UNL     1      93.479 113.137 115.154  1.00  0.00     0.106 C 
ATOM     14  C   UNL     1      92.078 117.209 118.631  1.00  0.00     0.087 A 
ATOM     15  C   UNL     1      96.156 118.544 117.011  1.00  0.00     0.009 A 
ATOM     16  C   UNL     1      94.536 119.869 118.288  1.00  0.00     0.027 A 
ATOM     17  C   UNL     1      95.764 119.745 117.618  1.00  0.00     0.003 A 
ATOM     18  H   UNL     1      91.937 119.195 119.380  1.00  0.00     0.166 HD
ENDROOT
BRANCH   7  19
ATOM     19  C   UNL     1      98.201 114.370 114.602  1.00  0.00     0.225 C 
ATOM     20  O   UNL     1      98.564 115.396 114.037  1.00  0.00    -0.275 OA
ATOM     21  N   UNL     1      98.849 113.188 114.359  1.00  0.00    -0.369 N 
ATOM     22  H   UNL     1      99.588 113.196 113.667  1.00  0.00     0.159 HD
ATOM     23  H   UNL     1      98.508 112.300 114.698  1.00  0.00     0.159 HD
ENDBRANCH   7  19
TORSDOF 1
ENDMDL
MODEL 19
REMARK VINA RESULT:    -7.307      9.601     11.614
REMARK INTER + INTRA:          -7.837
REMARK INTER:                  -7.741
REMARK INTRA:                  -0.096
REMARK UNBOUND:                -0.103
REMARK SMILES CN1C[C@H](C(N)=O)C=C2c3cccc4[nH]cc(c34)C[C@H]21
REMARK SMILES IDX 2 1 15 2 20 3 9 4 19 5 3 6 4 7 17 8 10 9 18 10 8 11 14 12
REMARK SMILES IDX 1 13 16 14 11 15 13 16 12 17 5 19 7 20 6 21
REMARK H PARENT 15 18 6 22 6 23
ROOT
ATOM      1  N   UNL     1      94.737 119.019 115.515  1.00  0.00    -0.298 NA
ATOM      2  N   UNL     1      93.681 113.113 115.942  1.00  0.00    -0.361 N 
ATOM      3  C   UNL     1      94.739 117.616 116.038  1.00  0.00     0.091 C 
ATOM      4  C   UNL     1      96.167 116.981 116.082  1.00  0.00    -0.026 C 
ATOM      5  C   UNL     1      93.707 116.741 115.228  1.00  0.00     0.061 C 
ATOM      6  C   UNL     1      95.885 119.773 116.060  1.00  0.00     0.102 C 
ATOM      7  C   UNL     1      97.217 119.180 115.572  1.00  0.00     0.115 C 
ATOM      8  C   UNL     1      93.846 115.297 115.572  1.00  0.00    -0.020 A 
ATOM      9  C   UNL     1      96.242 115.533 116.385  1.00  0.00    -0.011 A 
ATOM     10  C   UNL     1      95.066 114.827 116.102  1.00  0.00     0.010 A 
ATOM     11  C   UNL     1      97.281 117.697 115.837  1.00  0.00    -0.007 C 
ATOM     12  C   UNL     1      94.955 113.466 116.331  1.00  0.00     0.046 A 
ATOM     13  C   UNL     1      93.494 119.718 115.853  1.00  0.00     0.106 C 
ATOM     14  C   UNL     1      92.997 114.218 115.479  1.00  0.00     0.087 A 
ATOM     15  C   UNL     1      97.313 114.806 116.919  1.00  0.00     0.009 A 
ATOM     16  C   UNL     1      96.016 112.726 116.857  1.00  0.00     0.027 A 
ATOM     17  C   UNL     1      97.197 113.428 117.147  1.00  0.00     0.003 A 
ATOM     18  H   UNL     1      93.306 112.176 115.989  1.00  0.00     0.166 HD
ENDROOT
BRANCH   7  19
ATOM     19  C   UNL     1      98.386 119.888 116.264  1.00  0.00     0.225 C 
ATOM     20  O   UNL     1      98.390 120.261 117.432  1.00  0.00    -0.275 OA
ATOM     21  N   UNL     1      99.487 120.090 115.475  1.00  0.00    -0.369 N 
ATOM     22  H   UNL     1     100.263 120.598 115.881  1.00  0.00     0.159 HD
ATOM     23  H   UNL     1      99.484 119.919 114.480  1.00  0.00     0.159 HD
ENDBRANCH   7  19
TORSDOF 1
ENDMDL
