MODEL 1
REMARK VINA RESULT:    -9.919      0.000      0.000
REMARK INTER + INTRA:         -12.294
REMARK INTER:                 -11.949
REMARK INTRA:                  -0.345
REMARK UNBOUND:                -0.345
REMARK SMILES C[C@@H](CO)NC(=O)[C@@H]1C=C2c3cccc4[nH]cc(c34)C[C@H]2N(C)C1
REMARK SMILES IDX 2 1 1 2 5 3 7 4 6 5 8 7 24 8 9 9 22 10 10 11 21 12 11 13
REMARK SMILES IDX 20 14 19 15 12 16 18 17 15 18 13 19 17 20 16 21 14 22 23 23
REMARK SMILES IDX 3 25 4 26
REMARK H PARENT 5 6 16 24 4 27
ROOT
ATOM      1  C   UNL     1     108.091 131.864 124.882  1.00  0.00     0.104 C 
ATOM      2  C   UNL     1     108.695 130.724 124.063  1.00  0.00     0.033 C 
ENDROOT
BRANCH   1   3
ATOM      3  N   UNL     1     107.628 132.923 123.986  1.00  0.00    -0.351 N 
ATOM      4  O   UNL     1     106.645 134.856 123.484  1.00  0.00    -0.274 OA
ATOM      5  C   UNL     1     107.299 134.214 124.306  1.00  0.00     0.228 C 
ATOM      6  H   UNL     1     107.231 132.643 123.096  1.00  0.00     0.163 HD
BRANCH   5   7
ATOM      7  C   UNL     1     107.784 134.798 125.640  1.00  0.00     0.115 C 
ATOM      8  C   UNL     1     106.571 135.251 126.486  1.00  0.00     0.102 C 
ATOM      9  C   UNL     1     108.713 135.963 125.385  1.00  0.00    -0.007 C 
ATOM     10  N   UNL     1     106.922 136.014 127.700  1.00  0.00    -0.298 NA
ATOM     11  C   UNL     1     108.663 137.075 126.141  1.00  0.00    -0.026 C 
ATOM     12  C   UNL     1     107.703 137.231 127.354  1.00  0.00     0.091 C 
ATOM     13  C   UNL     1     109.442 138.285 125.798  1.00  0.00    -0.011 A 
ATOM     14  C   UNL     1     106.744 138.469 127.199  1.00  0.00     0.061 C 
ATOM     15  C   UNL     1     108.795 139.480 126.155  1.00  0.00     0.010 A 
ATOM     16  C   UNL     1     110.682 138.383 125.163  1.00  0.00     0.009 A 
ATOM     17  C   UNL     1     107.547 139.668 126.800  1.00  0.00    -0.020 A 
ATOM     18  C   UNL     1     109.355 140.718 125.894  1.00  0.00     0.046 A 
ATOM     19  C   UNL     1     111.245 139.642 124.905  1.00  0.00     0.003 A 
ATOM     20  C   UNL     1     107.357 141.025 126.921  1.00  0.00     0.087 A 
ATOM     21  N   UNL     1     108.456 141.650 126.368  1.00  0.00    -0.361 N 
ATOM     22  C   UNL     1     110.595 140.836 125.263  1.00  0.00     0.027 A 
ATOM     23  C   UNL     1     107.633 135.187 128.675  1.00  0.00     0.106 C 
ATOM     24  H   UNL     1     108.586 142.650 126.315  1.00  0.00     0.166 HD
ENDBRANCH   5   7
ENDBRANCH   1   3
BRANCH   1  25
ATOM     25  C   UNL     1     106.945 131.359 125.777  1.00  0.00     0.180 C 
BRANCH  25  26
ATOM     26  O   UNL     1     107.240 130.063 126.283  1.00  0.00    -0.394 OA
ATOM     27  H   UNL     1     107.230 130.126 127.255  1.00  0.00     0.210 HD
ENDBRANCH  25  26
ENDBRANCH   1  25
TORSDOF 4
ENDMDL
MODEL 2
REMARK VINA RESULT:    -9.302      2.554      7.178
REMARK INTER + INTRA:         -11.551
REMARK INTER:                 -11.726
REMARK INTRA:                   0.176
REMARK UNBOUND:                -0.345
REMARK SMILES C[C@@H](CO)NC(=O)[C@@H]1C=C2c3cccc4[nH]cc(c34)C[C@H]2N(C)C1
REMARK SMILES IDX 2 1 1 2 5 3 7 4 6 5 8 7 24 8 9 9 22 10 10 11 21 12 11 13
REMARK SMILES IDX 20 14 19 15 12 16 18 17 15 18 13 19 17 20 16 21 14 22 23 23
REMARK SMILES IDX 3 25 4 26
REMARK H PARENT 5 6 16 24 4 27
ROOT
ATOM      1  C   UNL     1     107.655 139.557 127.143  1.00  0.00     0.104 C 
ATOM      2  C   UNL     1     107.311 140.983 126.715  1.00  0.00     0.033 C 
ENDROOT
BRANCH   1   3
ATOM      3  N   UNL     1     108.687 139.014 126.260  1.00  0.00    -0.351 N 
ATOM      4  O   UNL     1     109.895 137.396 125.324  1.00  0.00    -0.274 OA
ATOM      5  C   UNL     1     108.808 137.731 125.793  1.00  0.00     0.228 C 
ATOM      6  H   UNL     1     109.562 139.522 126.195  1.00  0.00     0.163 HD
BRANCH   5   7
ATOM      7  C   UNL     1     107.590 136.800 125.849  1.00  0.00     0.115 C 
ATOM      8  C   UNL     1     107.222 136.506 127.322  1.00  0.00     0.102 C 
ATOM      9  C   UNL     1     107.890 135.514 125.114  1.00  0.00    -0.007 C 
ATOM     10  N   UNL     1     106.195 135.460 127.500  1.00  0.00    -0.298 NA
ATOM     11  C   UNL     1     107.480 134.325 125.591  1.00  0.00    -0.026 C 
ATOM     12  C   UNL     1     106.630 134.179 126.885  1.00  0.00     0.091 C 
ATOM     13  C   UNL     1     107.912 133.049 124.977  1.00  0.00    -0.011 A 
ATOM     14  C   UNL     1     107.333 133.268 127.959  1.00  0.00     0.061 C 
ATOM     15  C   UNL     1     108.047 132.005 125.908  1.00  0.00     0.010 A 
ATOM     16  C   UNL     1     108.217 132.774 123.643  1.00  0.00     0.009 A 
ATOM     17  C   UNL     1     107.808 132.009 127.304  1.00  0.00    -0.020 A 
ATOM     18  C   UNL     1     108.465 130.742 125.529  1.00  0.00     0.046 A 
ATOM     19  C   UNL     1     108.636 131.489 123.266  1.00  0.00     0.003 A 
ATOM     20  C   UNL     1     108.090 130.744 127.765  1.00  0.00     0.087 A 
ATOM     21  N   UNL     1     108.487 129.986 126.682  1.00  0.00    -0.361 N 
ATOM     22  C   UNL     1     108.771 130.445 124.198  1.00  0.00     0.027 A 
ATOM     23  C   UNL     1     104.894 135.883 126.980  1.00  0.00     0.106 C 
ATOM     24  H   UNL     1     108.759 129.014 126.725  1.00  0.00     0.166 HD
ENDBRANCH   5   7
ENDBRANCH   1   3
BRANCH   1  25
ATOM     25  C   UNL     1     108.106 139.511 128.614  1.00  0.00     0.180 C 
BRANCH  25  26
ATOM     26  O   UNL     1     109.231 140.355 128.818  1.00  0.00    -0.394 OA
ATOM     27  H   UNL     1     110.025 139.793 128.760  1.00  0.00     0.210 HD
ENDBRANCH  25  26
ENDBRANCH   1  25
TORSDOF 4
ENDMDL
MODEL 3
REMARK VINA RESULT:    -9.257      3.025      7.402
REMARK INTER + INTRA:         -11.496
REMARK INTER:                 -11.084
REMARK INTRA:                  -0.413
REMARK UNBOUND:                -0.345
REMARK SMILES C[C@@H](CO)NC(=O)[C@@H]1C=C2c3cccc4[nH]cc(c34)C[C@H]2N(C)C1
REMARK SMILES IDX 2 1 1 2 5 3 7 4 6 5 8 7 24 8 9 9 22 10 10 11 21 12 11 13
REMARK SMILES IDX 20 14 19 15 12 16 18 17 15 18 13 19 17 20 16 21 14 22 23 23
REMARK SMILES IDX 3 25 4 26
REMARK H PARENT 5 6 16 24 4 27
ROOT
ATOM      1  C   UNL     1     104.017 137.638 129.216  1.00  0.00     0.104 C 
ATOM      2  C   UNL     1     103.432 137.645 130.629  1.00  0.00     0.033 C 
ENDROOT
BRANCH   1   3
ATOM      3  N   UNL     1     103.414 136.557 128.439  1.00  0.00    -0.351 N 
ATOM      4  O   UNL     1     103.187 135.228 126.667  1.00  0.00    -0.274 OA
ATOM      5  C   UNL     1     103.953 135.879 127.376  1.00  0.00     0.228 C 
ATOM      6  H   UNL     1     102.404 136.462 128.471  1.00  0.00     0.163 HD
BRANCH   5   7
ATOM      7  C   UNL     1     105.469 135.940 127.146  1.00  0.00     0.115 C 
ATOM      8  C   UNL     1     105.762 136.416 125.704  1.00  0.00     0.102 C 
ATOM      9  C   UNL     1     106.082 134.580 127.386  1.00  0.00    -0.007 C 
ATOM     10  N   UNL     1     107.180 136.317 125.303  1.00  0.00    -0.298 NA
ATOM     11  C   UNL     1     107.058 134.102 126.592  1.00  0.00    -0.026 C 
ATOM     12  C   UNL     1     107.667 134.918 125.418  1.00  0.00     0.091 C 
ATOM     13  C   UNL     1     107.544 132.710 126.708  1.00  0.00    -0.011 A 
ATOM     14  C   UNL     1     107.522 134.174 124.038  1.00  0.00     0.061 C 
ATOM     15  C   UNL     1     107.947 132.160 125.480  1.00  0.00     0.010 A 
ATOM     16  C   UNL     1     107.624 131.897 127.840  1.00  0.00     0.009 A 
ATOM     17  C   UNL     1     107.969 132.754 124.193  1.00  0.00    -0.020 A 
ATOM     18  C   UNL     1     108.410 130.860 125.380  1.00  0.00     0.046 A 
ATOM     19  C   UNL     1     108.098 130.581 127.732  1.00  0.00     0.003 A 
ATOM     20  C   UNL     1     108.442 131.803 123.319  1.00  0.00     0.087 A 
ATOM     21  N   UNL     1     108.704 130.662 124.048  1.00  0.00    -0.361 N 
ATOM     22  C   UNL     1     108.500 130.032 126.502  1.00  0.00     0.027 A 
ATOM     23  C   UNL     1     108.025 137.237 126.064  1.00  0.00     0.106 C 
ATOM     24  H   UNL     1     109.060 129.798 123.662  1.00  0.00     0.166 HD
ENDBRANCH   5   7
ENDBRANCH   1   3
BRANCH   1  25
ATOM     25  C   UNL     1     103.812 138.997 128.524  1.00  0.00     0.180 C 
BRANCH  25  26
ATOM     26  O   UNL     1     102.434 139.345 128.503  1.00  0.00    -0.394 OA
ATOM     27  H   UNL     1     101.938 138.536 128.282  1.00  0.00     0.210 HD
ENDBRANCH  25  26
ENDBRANCH   1  25
TORSDOF 4
ENDMDL
MODEL 4
REMARK VINA RESULT:    -9.114      0.365      0.365
REMARK INTER + INTRA:         -11.325
REMARK INTER:                 -10.921
REMARK INTRA:                  -0.404
REMARK UNBOUND:                -0.345
REMARK SMILES C[C@@H](CO)NC(=O)[C@@H]1C=C2c3cccc4[nH]cc(c34)C[C@H]2N(C)C1
REMARK SMILES IDX 2 1 1 2 5 3 7 4 6 5 8 7 24 8 9 9 22 10 10 11 21 12 11 13
REMARK SMILES IDX 20 14 19 15 12 16 18 17 15 18 13 19 17 20 16 21 14 22 23 23
REMARK SMILES IDX 3 25 4 26
REMARK H PARENT 5 6 16 24 4 27
ROOT
ATOM      1  C   UNL     1     108.179 131.951 124.522  1.00  0.00     0.104 C 
ATOM      2  C   UNL     1     108.821 130.846 123.683  1.00  0.00     0.033 C 
ENDROOT
BRANCH   1   3
ATOM      3  N   UNL     1     107.773 133.055 123.654  1.00  0.00    -0.351 N 
ATOM      4  O   UNL     1     106.825 135.016 123.192  1.00  0.00    -0.274 OA
ATOM      5  C   UNL     1     107.428 134.331 124.017  1.00  0.00     0.228 C 
ATOM      6  H   UNL     1     107.428 132.823 122.729  1.00  0.00     0.163 HD
BRANCH   5   7
ATOM      7  C   UNL     1     107.833 134.845 125.405  1.00  0.00     0.115 C 
ATOM      8  C   UNL     1     106.571 135.232 126.211  1.00  0.00     0.102 C 
ATOM      9  C   UNL     1     108.754 136.036 125.265  1.00  0.00    -0.007 C 
ATOM     10  N   UNL     1     106.846 135.931 127.482  1.00  0.00    -0.298 NA
ATOM     11  C   UNL     1     108.646 137.102 126.078  1.00  0.00    -0.026 C 
ATOM     12  C   UNL     1     107.623 137.176 127.246  1.00  0.00     0.091 C 
ATOM     13  C   UNL     1     109.421 138.341 125.844  1.00  0.00    -0.011 A 
ATOM     14  C   UNL     1     106.652 138.408 127.110  1.00  0.00     0.061 C 
ATOM     15  C   UNL     1     108.736 139.504 126.233  1.00  0.00     0.010 A 
ATOM     16  C   UNL     1     110.690 138.492 125.281  1.00  0.00     0.009 A 
ATOM     17  C   UNL     1     107.454 139.638 126.821  1.00  0.00    -0.020 A 
ATOM     18  C   UNL     1     109.287 140.763 126.070  1.00  0.00     0.046 A 
ATOM     19  C   UNL     1     111.244 139.771 125.123  1.00  0.00     0.003 A 
ATOM     20  C   UNL     1     107.235 140.984 127.007  1.00  0.00     0.087 A 
ATOM     21  N   UNL     1     108.350 141.654 126.548  1.00  0.00    -0.361 N 
ATOM     22  C   UNL     1     110.557 140.934 125.512  1.00  0.00     0.027 A 
ATOM     23  C   UNL     1     107.520 135.060 128.445  1.00  0.00     0.106 C 
ATOM     24  H   UNL     1     108.466 142.658 126.557  1.00  0.00     0.166 HD
ENDBRANCH   5   7
ENDBRANCH   1   3
BRANCH   1  25
ATOM     25  C   UNL     1     106.983 131.413 125.328  1.00  0.00     0.180 C 
BRANCH  25  26
ATOM     26  O   UNL     1     107.329 131.269 126.699  1.00  0.00    -0.394 OA
ATOM     27  H   UNL     1     106.926 130.438 127.010  1.00  0.00     0.210 HD
ENDBRANCH  25  26
ENDBRANCH   1  25
TORSDOF 4
ENDMDL
MODEL 5
REMARK VINA RESULT:    -8.913      2.733      4.931
REMARK INTER + INTRA:         -11.082
REMARK INTER:                 -11.046
REMARK INTRA:                  -0.036
REMARK UNBOUND:                -0.345
REMARK SMILES C[C@@H](CO)NC(=O)[C@@H]1C=C2c3cccc4[nH]cc(c34)C[C@H]2N(C)C1
REMARK SMILES IDX 2 1 1 2 5 3 7 4 6 5 8 7 24 8 9 9 22 10 10 11 21 12 11 13
REMARK SMILES IDX 20 14 19 15 12 16 18 17 15 18 13 19 17 20 16 21 14 22 23 23
REMARK SMILES IDX 3 25 4 26
REMARK H PARENT 5 6 16 24 4 27
ROOT
ATOM      1  C   UNL     1     103.736 137.081 129.387  1.00  0.00     0.104 C 
ATOM      2  C   UNL     1     103.990 138.331 130.230  1.00  0.00     0.033 C 
ENDROOT
BRANCH   1   3
ATOM      3  N   UNL     1     104.700 136.042 129.745  1.00  0.00    -0.351 N 
ATOM      4  O   UNL     1     105.956 134.241 129.377  1.00  0.00    -0.274 OA
ATOM      5  C   UNL     1     105.441 135.253 128.904  1.00  0.00     0.228 C 
ATOM      6  H   UNL     1     104.635 135.642 130.675  1.00  0.00     0.163 HD
BRANCH   5   7
ATOM      7  C   UNL     1     105.617 135.684 127.441  1.00  0.00     0.115 C 
ATOM      8  C   UNL     1     106.755 134.867 126.787  1.00  0.00     0.102 C 
ATOM      9  C   UNL     1     105.923 137.162 127.373  1.00  0.00    -0.007 C 
ATOM     10  N   UNL     1     107.152 135.335 125.444  1.00  0.00    -0.298 NA
ATOM     11  C   UNL     1     106.833 137.648 126.508  1.00  0.00    -0.026 C 
ATOM     12  C   UNL     1     107.590 136.755 125.486  1.00  0.00     0.091 C 
ATOM     13  C   UNL     1     107.267 139.062 126.548  1.00  0.00    -0.011 A 
ATOM     14  C   UNL     1     109.152 136.840 125.663  1.00  0.00     0.061 C 
ATOM     15  C   UNL     1     108.609 139.240 126.174  1.00  0.00     0.010 A 
ATOM     16  C   UNL     1     106.542 140.195 126.924  1.00  0.00     0.009 A 
ATOM     17  C   UNL     1     109.561 138.277 125.754  1.00  0.00    -0.020 A 
ATOM     18  C   UNL     1     109.206 140.489 126.172  1.00  0.00     0.046 A 
ATOM     19  C   UNL     1     107.153 141.458 126.915  1.00  0.00     0.003 A 
ATOM     20  C   UNL     1     110.734 138.951 125.506  1.00  0.00     0.087 A 
ATOM     21  N   UNL     1     110.507 140.288 125.763  1.00  0.00    -0.361 N 
ATOM     22  C   UNL     1     108.497 141.634 126.541  1.00  0.00     0.027 A 
ATOM     23  C   UNL     1     106.085 135.138 124.463  1.00  0.00     0.106 C 
ATOM     24  H   UNL     1     111.197 141.020 125.667  1.00  0.00     0.166 HD
ENDBRANCH   5   7
ENDBRANCH   1   3
BRANCH   1  25
ATOM     25  C   UNL     1     102.291 136.578 129.561  1.00  0.00     0.180 C 
BRANCH  25  26
ATOM     26  O   UNL     1     101.926 135.726 128.483  1.00  0.00    -0.394 OA
ATOM     27  H   UNL     1     102.746 135.322 128.147  1.00  0.00     0.210 HD
ENDBRANCH  25  26
ENDBRANCH   1  25
TORSDOF 4
ENDMDL
MODEL 6
REMARK VINA RESULT:    -8.649      3.172      6.807
REMARK INTER + INTRA:         -10.764
REMARK INTER:                 -10.624
REMARK INTRA:                  -0.140
REMARK UNBOUND:                -0.345
REMARK SMILES C[C@@H](CO)NC(=O)[C@@H]1C=C2c3cccc4[nH]cc(c34)C[C@H]2N(C)C1
REMARK SMILES IDX 2 1 1 2 5 3 7 4 6 5 8 7 24 8 9 9 22 10 10 11 21 12 11 13
REMARK SMILES IDX 20 14 19 15 12 16 18 17 15 18 13 19 17 20 16 21 14 22 23 23
REMARK SMILES IDX 3 25 4 26
REMARK H PARENT 5 6 16 24 4 27
ROOT
ATOM      1  C   UNL     1     110.067 140.407 125.755  1.00  0.00     0.104 C 
ATOM      2  C   UNL     1     111.087 139.488 125.083  1.00  0.00     0.033 C 
ENDROOT
BRANCH   1   3
ATOM      3  N   UNL     1     110.110 140.215 127.204  1.00  0.00    -0.351 N 
ATOM      4  O   UNL     1     109.247 140.116 129.254  1.00  0.00    -0.274 OA
ATOM      5  C   UNL     1     109.068 139.937 128.049  1.00  0.00     0.228 C 
ATOM      6  H   UNL     1     110.909 140.591 127.703  1.00  0.00     0.163 HD
BRANCH   5   7
ATOM      7  C   UNL     1     107.758 139.393 127.463  1.00  0.00     0.115 C 
ATOM      8  C   UNL     1     106.778 139.042 128.607  1.00  0.00     0.102 C 
ATOM      9  C   UNL     1     108.040 138.173 126.617  1.00  0.00    -0.007 C 
ATOM     10  N   UNL     1     105.565 138.320 128.174  1.00  0.00    -0.298 NA
ATOM     11  C   UNL     1     107.226 137.101 126.644  1.00  0.00    -0.026 C 
ATOM     12  C   UNL     1     105.921 137.051 127.487  1.00  0.00     0.091 C 
ATOM     13  C   UNL     1     107.579 135.839 125.957  1.00  0.00    -0.011 A 
ATOM     14  C   UNL     1     105.919 135.856 128.511  1.00  0.00     0.061 C 
ATOM     15  C   UNL     1     107.100 134.696 126.620  1.00  0.00     0.010 A 
ATOM     16  C   UNL     1     108.323 135.649 124.791  1.00  0.00     0.009 A 
ATOM     17  C   UNL     1     106.331 134.601 127.806  1.00  0.00    -0.020 A 
ATOM     18  C   UNL     1     107.350 133.421 126.145  1.00  0.00     0.046 A 
ATOM     19  C   UNL     1     108.569 134.354 124.313  1.00  0.00     0.003 A 
ATOM     20  C   UNL     1     106.123 133.262 128.044  1.00  0.00     0.087 A 
ATOM     21  N   UNL     1     106.745 132.558 127.034  1.00  0.00    -0.361 N 
ATOM     22  C   UNL     1     108.090 133.211 124.978  1.00  0.00     0.027 A 
ATOM     23  C   UNL     1     104.706 139.155 127.335  1.00  0.00     0.106 C 
ATOM     24  H   UNL     1     106.759 131.551 126.955  1.00  0.00     0.166 HD
ENDBRANCH   5   7
ENDBRANCH   1   3
BRANCH   1  25
ATOM     25  C   UNL     1     110.318 141.880 125.385  1.00  0.00     0.180 C 
BRANCH  25  26
ATOM     26  O   UNL     1     110.720 141.993 124.026  1.00  0.00    -0.394 OA
ATOM     27  H   UNL     1     111.693 142.027 124.017  1.00  0.00     0.210 HD
ENDBRANCH  25  26
ENDBRANCH   1  25
TORSDOF 4
ENDMDL
MODEL 7
REMARK VINA RESULT:    -8.065      3.993      6.934
REMARK INTER + INTRA:         -10.061
REMARK INTER:                  -9.992
REMARK INTRA:                  -0.069
REMARK UNBOUND:                -0.345
REMARK SMILES C[C@@H](CO)NC(=O)[C@@H]1C=C2c3cccc4[nH]cc(c34)C[C@H]2N(C)C1
REMARK SMILES IDX 2 1 1 2 5 3 7 4 6 5 8 7 24 8 9 9 22 10 10 11 21 12 11 13
REMARK SMILES IDX 20 14 19 15 12 16 18 17 15 18 13 19 17 20 16 21 14 22 23 23
REMARK SMILES IDX 3 25 4 26
REMARK H PARENT 5 6 16 24 4 27
ROOT
ATOM      1  C   UNL     1     110.925 139.745 124.779  1.00  0.00     0.104 C 
ATOM      2  C   UNL     1     112.217 139.461 124.014  1.00  0.00     0.033 C 
ENDROOT
BRANCH   1   3
ATOM      3  N   UNL     1     110.924 139.000 126.037  1.00  0.00    -0.351 N 
ATOM      4  O   UNL     1     110.332 138.600 128.146  1.00  0.00    -0.274 OA
ATOM      5  C   UNL     1     110.004 139.060 127.053  1.00  0.00     0.228 C 
ATOM      6  H   UNL     1     111.805 138.609 126.352  1.00  0.00     0.163 HD
BRANCH   5   7
ATOM      7  C   UNL     1     108.620 139.659 126.769  1.00  0.00     0.115 C 
ATOM      8  C   UNL     1     108.239 140.651 127.893  1.00  0.00     0.102 C 
ATOM      9  C   UNL     1     107.592 138.556 126.668  1.00  0.00    -0.007 C 
ATOM     10  N   UNL     1     106.845 141.135 127.836  1.00  0.00    -0.298 NA
ATOM     11  C   UNL     1     106.363 138.696 127.200  1.00  0.00    -0.026 C 
ATOM     12  C   UNL     1     105.887 140.000 127.899  1.00  0.00     0.091 C 
ATOM     13  C   UNL     1     105.409 137.566 127.260  1.00  0.00    -0.011 A 
ATOM     14  C   UNL     1     105.436 139.748 129.385  1.00  0.00     0.061 C 
ATOM     15  C   UNL     1     104.574 137.607 128.390  1.00  0.00     0.010 A 
ATOM     16  C   UNL     1     105.260 136.492 126.381  1.00  0.00     0.009 A 
ATOM     17  C   UNL     1     104.514 138.569 129.428  1.00  0.00    -0.020 A 
ATOM     18  C   UNL     1     103.632 136.624 128.635  1.00  0.00     0.046 A 
ATOM     19  C   UNL     1     104.300 135.501 126.634  1.00  0.00     0.003 A 
ATOM     20  C   UNL     1     103.535 138.157 130.303  1.00  0.00     0.087 A 
ATOM     21  N   UNL     1     103.010 136.979 129.813  1.00  0.00    -0.361 N 
ATOM     22  C   UNL     1     103.466 135.543 127.765  1.00  0.00     0.027 A 
ATOM     23  C   UNL     1     106.606 141.965 126.655  1.00  0.00     0.106 C 
ATOM     24  H   UNL     1     102.273 136.447 130.254  1.00  0.00     0.166 HD
ENDBRANCH   5   7
ENDBRANCH   1   3
BRANCH   1  25
ATOM     25  C   UNL     1     110.747 141.253 125.030  1.00  0.00     0.180 C 
BRANCH  25  26
ATOM     26  O   UNL     1     111.024 141.992 123.848  1.00  0.00    -0.394 OA
ATOM     27  H   UNL     1     111.764 142.592 124.051  1.00  0.00     0.210 HD
ENDBRANCH  25  26
ENDBRANCH   1  25
TORSDOF 4
ENDMDL
MODEL 8
REMARK VINA RESULT:    -7.809      1.939      3.349
REMARK INTER + INTRA:          -9.753
REMARK INTER:                 -10.458
REMARK INTRA:                   0.705
REMARK UNBOUND:                -0.345
REMARK SMILES C[C@@H](CO)NC(=O)[C@@H]1C=C2c3cccc4[nH]cc(c34)C[C@H]2N(C)C1
REMARK SMILES IDX 2 1 1 2 5 3 7 4 6 5 8 7 24 8 9 9 22 10 10 11 21 12 11 13
REMARK SMILES IDX 20 14 19 15 12 16 18 17 15 18 13 19 17 20 16 21 14 22 23 23
REMARK SMILES IDX 3 25 4 26
REMARK H PARENT 5 6 16 24 4 27
ROOT
ATOM      1  C   UNL     1     107.647 131.362 126.988  1.00  0.00     0.104 C 
ATOM      2  C   UNL     1     106.605 131.090 125.904  1.00  0.00     0.033 C 
ENDROOT
BRANCH   1   3
ATOM      3  N   UNL     1     107.055 132.177 128.047  1.00  0.00    -0.351 N 
ATOM      4  O   UNL     1     106.587 134.077 129.109  1.00  0.00    -0.274 OA
ATOM      5  C   UNL     1     106.795 133.523 128.030  1.00  0.00     0.228 C 
ATOM      6  H   UNL     1     107.087 131.813 128.993  1.00  0.00     0.163 HD
BRANCH   5   7
ATOM      7  C   UNL     1     106.747 134.255 126.682  1.00  0.00     0.115 C 
ATOM      8  C   UNL     1     108.072 134.031 125.916  1.00  0.00     0.102 C 
ATOM      9  C   UNL     1     106.510 135.731 126.905  1.00  0.00    -0.007 C 
ATOM     10  N   UNL     1     108.222 134.853 124.699  1.00  0.00    -0.298 NA
ATOM     11  C   UNL     1     107.153 136.660 126.174  1.00  0.00    -0.026 C 
ATOM     12  C   UNL     1     108.133 136.301 125.022  1.00  0.00     0.091 C 
ATOM     13  C   UNL     1     107.063 138.102 126.495  1.00  0.00    -0.011 A 
ATOM     14  C   UNL     1     109.571 136.898 125.256  1.00  0.00     0.061 C 
ATOM     15  C   UNL     1     108.240 138.809 126.199  1.00  0.00     0.010 A 
ATOM     16  C   UNL     1     106.002 138.813 127.060  1.00  0.00     0.009 A 
ATOM     17  C   UNL     1     109.451 138.342 125.631  1.00  0.00    -0.020 A 
ATOM     18  C   UNL     1     108.358 140.165 126.451  1.00  0.00     0.046 A 
ATOM     19  C   UNL     1     106.128 140.188 127.309  1.00  0.00     0.003 A 
ATOM     20  C   UNL     1     110.299 139.421 125.548  1.00  0.00     0.087 A 
ATOM     21  N   UNL     1     109.628 140.518 126.048  1.00  0.00    -0.361 N 
ATOM     22  C   UNL     1     107.307 140.894 127.012  1.00  0.00     0.027 A 
ATOM     23  C   UNL     1     107.252 134.479 123.669  1.00  0.00     0.106 C 
ATOM     24  H   UNL     1     110.011 141.450 126.113  1.00  0.00     0.166 HD
ENDBRANCH   5   7
ENDBRANCH   1   3
BRANCH   1  25
ATOM     25  C   UNL     1     108.214 130.047 127.556  1.00  0.00     0.180 C 
BRANCH  25  26
ATOM     26  O   UNL     1     108.094 130.022 128.972  1.00  0.00    -0.394 OA
ATOM     27  H   UNL     1     108.953 130.300 129.337  1.00  0.00     0.210 HD
ENDBRANCH  25  26
ENDBRANCH   1  25
TORSDOF 4
ENDMDL
MODEL 9
REMARK VINA RESULT:    -7.701      2.905      6.574
REMARK INTER + INTRA:          -9.621
REMARK INTER:                  -9.877
REMARK INTRA:                   0.256
REMARK UNBOUND:                -0.345
REMARK SMILES C[C@@H](CO)NC(=O)[C@@H]1C=C2c3cccc4[nH]cc(c34)C[C@H]2N(C)C1
REMARK SMILES IDX 2 1 1 2 5 3 7 4 6 5 8 7 24 8 9 9 22 10 10 11 21 12 11 13
REMARK SMILES IDX 20 14 19 15 12 16 18 17 15 18 13 19 17 20 16 21 14 22 23 23
REMARK SMILES IDX 3 25 4 26
REMARK H PARENT 5 6 16 24 4 27
ROOT
ATOM      1  C   UNL     1     104.497 135.625 126.996  1.00  0.00     0.104 C 
ATOM      2  C   UNL     1     104.319 136.014 125.529  1.00  0.00     0.033 C 
ENDROOT
BRANCH   1   3
ATOM      3  N   UNL     1     104.614 136.832 127.814  1.00  0.00    -0.351 N 
ATOM      4  O   UNL     1     105.628 138.222 129.227  1.00  0.00    -0.274 OA
ATOM      5  C   UNL     1     105.754 137.401 128.319  1.00  0.00     0.228 C 
ATOM      6  H   UNL     1     103.787 137.144 128.311  1.00  0.00     0.163 HD
BRANCH   5   7
ATOM      7  C   UNL     1     107.110 137.015 127.713  1.00  0.00     0.115 C 
ATOM      8  C   UNL     1     107.146 137.405 126.217  1.00  0.00     0.102 C 
ATOM      9  C   UNL     1     107.345 135.531 127.877  1.00  0.00    -0.007 C 
ATOM     10  N   UNL     1     108.320 136.899 125.480  1.00  0.00    -0.298 NA
ATOM     11  C   UNL     1     107.902 134.800 126.894  1.00  0.00    -0.026 C 
ATOM     12  C   UNL     1     108.396 135.416 125.556  1.00  0.00     0.091 C 
ATOM     13  C   UNL     1     107.979 133.324 126.971  1.00  0.00    -0.011 A 
ATOM     14  C   UNL     1     107.691 134.769 124.306  1.00  0.00     0.061 C 
ATOM     15  C   UNL     1     107.875 132.698 125.718  1.00  0.00     0.010 A 
ATOM     16  C   UNL     1     108.110 132.507 128.096  1.00  0.00     0.009 A 
ATOM     17  C   UNL     1     107.735 133.278 124.433  1.00  0.00    -0.020 A 
ATOM     18  C   UNL     1     107.901 131.321 125.587  1.00  0.00     0.046 A 
ATOM     19  C   UNL     1     108.140 131.111 127.955  1.00  0.00     0.003 A 
ATOM     20  C   UNL     1     107.671 132.243 123.529  1.00  0.00     0.087 A 
ATOM     21  N   UNL     1     107.771 131.064 124.239  1.00  0.00    -0.361 N 
ATOM     22  C   UNL     1     108.035 130.487 126.700  1.00  0.00     0.027 A 
ATOM     23  C   UNL     1     109.561 137.518 125.945  1.00  0.00     0.106 C 
ATOM     24  H   UNL     1     107.751 130.140 123.830  1.00  0.00     0.166 HD
ENDBRANCH   5   7
ENDBRANCH   1   3
BRANCH   1  25
ATOM     25  C   UNL     1     103.335 134.740 127.482  1.00  0.00     0.180 C 
BRANCH  25  26
ATOM     26  O   UNL     1     102.346 135.527 128.134  1.00  0.00    -0.394 OA
ATOM     27  H   UNL     1     102.814 136.228 128.622  1.00  0.00     0.210 HD
ENDBRANCH  25  26
ENDBRANCH   1  25
TORSDOF 4
ENDMDL
MODEL 10
REMARK VINA RESULT:    -7.637      2.903      7.135
REMARK INTER + INTRA:          -9.545
REMARK INTER:                  -9.064
REMARK INTRA:                  -0.480
REMARK UNBOUND:                -0.345
REMARK SMILES C[C@@H](CO)NC(=O)[C@@H]1C=C2c3cccc4[nH]cc(c34)C[C@H]2N(C)C1
REMARK SMILES IDX 2 1 1 2 5 3 7 4 6 5 8 7 24 8 9 9 22 10 10 11 21 12 11 13
REMARK SMILES IDX 20 14 19 15 12 16 18 17 15 18 13 19 17 20 16 21 14 22 23 23
REMARK SMILES IDX 3 25 4 26
REMARK H PARENT 5 6 16 24 4 27
ROOT
ATOM      1  C   UNL     1     104.336 138.377 129.857  1.00  0.00     0.104 C 
ATOM      2  C   UNL     1     103.356 137.968 130.956  1.00  0.00     0.033 C 
ENDROOT
BRANCH   1   3
ATOM      3  N   UNL     1     103.792 138.008 128.551  1.00  0.00    -0.351 N 
ATOM      4  O   UNL     1     103.851 137.749 126.340  1.00  0.00    -0.274 OA
ATOM      5  C   UNL     1     104.481 137.734 127.397  1.00  0.00     0.228 C 
ATOM      6  H   UNL     1     102.823 138.242 128.363  1.00  0.00     0.163 HD
BRANCH   5   7
ATOM      7  C   UNL     1     105.975 137.396 127.484  1.00  0.00     0.115 C 
ATOM      8  C   UNL     1     106.711 137.951 126.242  1.00  0.00     0.102 C 
ATOM      9  C   UNL     1     106.159 135.899 127.581  1.00  0.00    -0.007 C 
ATOM     10  N   UNL     1     108.115 137.510 126.115  1.00  0.00    -0.298 NA
ATOM     11  C   UNL     1     107.149 135.272 126.919  1.00  0.00    -0.026 C 
ATOM     12  C   UNL     1     108.202 136.027 126.060  1.00  0.00     0.091 C 
ATOM     13  C   UNL     1     107.237 133.796 126.866  1.00  0.00    -0.011 A 
ATOM     14  C   UNL     1     108.213 135.536 124.564  1.00  0.00     0.061 C 
ATOM     15  C   UNL     1     107.774 133.317 125.659  1.00  0.00     0.010 A 
ATOM     16  C   UNL     1     106.842 132.856 127.819  1.00  0.00     0.009 A 
ATOM     17  C   UNL     1     108.248 134.040 124.536  1.00  0.00    -0.020 A 
ATOM     18  C   UNL     1     107.914 131.963 125.411  1.00  0.00     0.046 A 
ATOM     19  C   UNL     1     106.990 131.485 127.562  1.00  0.00     0.003 A 
ATOM     20  C   UNL     1     108.668 133.114 123.610  1.00  0.00     0.087 A 
ATOM     21  N   UNL     1     108.460 131.861 124.149  1.00  0.00    -0.361 N 
ATOM     22  C   UNL     1     107.527 131.007 126.354  1.00  0.00     0.027 A 
ATOM     23  C   UNL     1     108.953 138.050 127.185  1.00  0.00     0.106 C 
ATOM     24  H   UNL     1     108.675 130.989 123.686  1.00  0.00     0.166 HD
ENDBRANCH   5   7
ENDBRANCH   1   3
BRANCH   1  25
ATOM     25  C   UNL     1     104.647 139.883 129.921  1.00  0.00     0.180 C 
BRANCH  25  26
ATOM     26  O   UNL     1     106.044 140.111 129.795  1.00  0.00    -0.394 OA
ATOM     27  H   UNL     1     106.310 140.680 130.539  1.00  0.00     0.210 HD
ENDBRANCH  25  26
ENDBRANCH   1  25
TORSDOF 4
ENDMDL
MODEL 11
REMARK VINA RESULT:    -7.568      5.261      9.001
REMARK INTER + INTRA:          -9.462
REMARK INTER:                  -9.058
REMARK INTRA:                  -0.404
REMARK UNBOUND:                -0.345
REMARK SMILES C[C@@H](CO)NC(=O)[C@@H]1C=C2c3cccc4[nH]cc(c34)C[C@H]2N(C)C1
REMARK SMILES IDX 2 1 1 2 5 3 7 4 6 5 8 7 24 8 9 9 22 10 10 11 21 12 11 13
REMARK SMILES IDX 20 14 19 15 12 16 18 17 15 18 13 19 17 20 16 21 14 22 23 23
REMARK SMILES IDX 3 25 4 26
REMARK H PARENT 5 6 16 24 4 27
ROOT
ATOM      1  C   UNL     1     107.490 132.038 125.339  1.00  0.00     0.104 C 
ATOM      2  C   UNL     1     108.080 133.378 124.902  1.00  0.00     0.033 C 
ENDROOT
BRANCH   1   3
ATOM      3  N   UNL     1     108.551 131.035 125.418  1.00  0.00    -0.351 N 
ATOM      4  O   UNL     1     109.671 129.225 124.764  1.00  0.00    -0.274 OA
ATOM      5  C   UNL     1     108.996 130.197 124.428  1.00  0.00     0.228 C 
ATOM      6  H   UNL     1     108.812 130.699 126.339  1.00  0.00     0.163 HD
BRANCH   5   7
ATOM      7  C   UNL     1     108.661 130.528 122.967  1.00  0.00     0.115 C 
ATOM      8  C   UNL     1     108.420 129.221 122.176  1.00  0.00     0.102 C 
ATOM      9  C   UNL     1     109.790 131.320 122.347  1.00  0.00    -0.007 C 
ATOM     10  N   UNL     1     108.293 129.404 120.716  1.00  0.00    -0.298 NA
ATOM     11  C   UNL     1     110.193 131.089 121.084  1.00  0.00    -0.026 C 
ATOM     12  C   UNL     1     109.509 130.048 120.154  1.00  0.00     0.091 C 
ATOM     13  C   UNL     1     111.403 131.732 120.524  1.00  0.00    -0.011 A 
ATOM     14  C   UNL     1     110.518 128.954 119.640  1.00  0.00     0.061 C 
ATOM     15  C   UNL     1     112.081 130.922 119.597  1.00  0.00     0.010 A 
ATOM     16  C   UNL     1     111.947 132.984 120.813  1.00  0.00     0.009 A 
ATOM     17  C   UNL     1     111.754 129.625 119.128  1.00  0.00    -0.020 A 
ATOM     18  C   UNL     1     113.248 131.340 118.983  1.00  0.00     0.046 A 
ATOM     19  C   UNL     1     113.129 133.402 120.182  1.00  0.00     0.003 A 
ATOM     20  C   UNL     1     112.734 129.263 118.233  1.00  0.00     0.087 A 
ATOM     21  N   UNL     1     113.632 130.307 118.154  1.00  0.00    -0.361 N 
ATOM     22  C   UNL     1     113.807 132.591 119.256  1.00  0.00     0.027 A 
ATOM     23  C   UNL     1     107.086 130.153 120.366  1.00  0.00     0.106 C 
ATOM     24  H   UNL     1     114.459 130.316 117.572  1.00  0.00     0.166 HD
ENDBRANCH   5   7
ENDBRANCH   1   3
BRANCH   1  25
ATOM     25  C   UNL     1     106.752 132.168 126.684  1.00  0.00     0.180 C 
BRANCH  25  26
ATOM     26  O   UNL     1     107.407 131.405 127.689  1.00  0.00    -0.394 OA
ATOM     27  H   UNL     1     108.358 131.608 127.630  1.00  0.00     0.210 HD
ENDBRANCH  25  26
ENDBRANCH   1  25
TORSDOF 4
ENDMDL
MODEL 12
REMARK VINA RESULT:    -7.367      4.160      7.435
REMARK INTER + INTRA:          -9.220
REMARK INTER:                  -9.084
REMARK INTRA:                  -0.136
REMARK UNBOUND:                -0.345
REMARK SMILES C[C@@H](CO)NC(=O)[C@@H]1C=C2c3cccc4[nH]cc(c34)C[C@H]2N(C)C1
REMARK SMILES IDX 2 1 1 2 5 3 7 4 6 5 8 7 24 8 9 9 22 10 10 11 21 12 11 13
REMARK SMILES IDX 20 14 19 15 12 16 18 17 15 18 13 19 17 20 16 21 14 22 23 23
REMARK SMILES IDX 3 25 4 26
REMARK H PARENT 5 6 16 24 4 27
ROOT
ATOM      1  C   UNL     1     103.264 140.277 129.716  1.00  0.00     0.104 C 
ATOM      2  C   UNL     1     102.782 141.726 129.777  1.00  0.00     0.033 C 
ENDROOT
BRANCH   1   3
ATOM      3  N   UNL     1     104.642 140.237 129.227  1.00  0.00    -0.351 N 
ATOM      4  O   UNL     1     106.565 139.253 128.688  1.00  0.00    -0.274 OA
ATOM      5  C   UNL     1     105.340 139.153 128.761  1.00  0.00     0.228 C 
ATOM      6  H   UNL     1     105.260 140.992 129.504  1.00  0.00     0.163 HD
BRANCH   5   7
ATOM      7  C   UNL     1     104.568 137.899 128.330  1.00  0.00     0.115 C 
ATOM      8  C   UNL     1     104.411 136.941 129.533  1.00  0.00     0.102 C 
ATOM      9  C   UNL     1     105.296 137.210 127.199  1.00  0.00    -0.007 C 
ATOM     10  N   UNL     1     103.865 135.612 129.191  1.00  0.00    -0.298 NA
ATOM     11  C   UNL     1     105.390 135.869 127.143  1.00  0.00    -0.026 C 
ATOM     12  C   UNL     1     104.722 134.930 128.186  1.00  0.00     0.091 C 
ATOM     13  C   UNL     1     106.242 135.189 126.142  1.00  0.00    -0.011 A 
ATOM     14  C   UNL     1     105.768 133.998 128.904  1.00  0.00     0.061 C 
ATOM     15  C   UNL     1     106.806 133.993 126.616  1.00  0.00     0.010 A 
ATOM     16  C   UNL     1     106.563 135.589 124.843  1.00  0.00     0.009 A 
ATOM     17  C   UNL     1     106.651 133.363 127.876  1.00  0.00    -0.020 A 
ATOM     18  C   UNL     1     107.652 133.227 125.833  1.00  0.00     0.046 A 
ATOM     19  C   UNL     1     107.418 134.805 124.054  1.00  0.00     0.003 A 
ATOM     20  C   UNL     1     107.413 132.218 127.849  1.00  0.00     0.087 A 
ATOM     21  N   UNL     1     108.014 132.146 126.610  1.00  0.00    -0.361 N 
ATOM     22  C   UNL     1     107.983 133.608 124.531  1.00  0.00     0.027 A 
ATOM     23  C   UNL     1     102.478 135.696 128.734  1.00  0.00     0.106 C 
ATOM     24  H   UNL     1     108.635 131.408 126.310  1.00  0.00     0.166 HD
ENDBRANCH   5   7
ENDBRANCH   1   3
BRANCH   1  25
ATOM     25  C   UNL     1     103.146 139.594 131.090  1.00  0.00     0.180 C 
BRANCH  25  26
ATOM     26  O   UNL     1     101.972 138.795 131.151  1.00  0.00    -0.394 OA
ATOM     27  H   UNL     1     101.646 138.694 130.239  1.00  0.00     0.210 HD
ENDBRANCH  25  26
ENDBRANCH   1  25
TORSDOF 4
ENDMDL
MODEL 13
REMARK VINA RESULT:    -7.305      2.892      5.806
REMARK INTER + INTRA:          -9.145
REMARK INTER:                 -10.268
REMARK INTRA:                   1.122
REMARK UNBOUND:                -0.345
REMARK SMILES C[C@@H](CO)NC(=O)[C@@H]1C=C2c3cccc4[nH]cc(c34)C[C@H]2N(C)C1
REMARK SMILES IDX 2 1 1 2 5 3 7 4 6 5 8 7 24 8 9 9 22 10 10 11 21 12 11 13
REMARK SMILES IDX 20 14 19 15 12 16 18 17 15 18 13 19 17 20 16 21 14 22 23 23
REMARK SMILES IDX 3 25 4 26
REMARK H PARENT 5 6 16 24 4 27
ROOT
ATOM      1  C   UNL     1     108.503 136.235 125.753  1.00  0.00     0.104 C 
ATOM      2  C   UNL     1     108.072 135.386 126.949  1.00  0.00     0.033 C 
ENDROOT
BRANCH   1   3
ATOM      3  N   UNL     1     109.634 137.081 126.132  1.00  0.00    -0.351 N 
ATOM      4  O   UNL     1     110.771 138.990 126.264  1.00  0.00    -0.274 OA
ATOM      5  C   UNL     1     109.667 138.447 126.237  1.00  0.00     0.228 C 
ATOM      6  H   UNL     1     110.565 136.688 126.040  1.00  0.00     0.163 HD
BRANCH   5   7
ATOM      7  C   UNL     1     108.345 139.218 126.347  1.00  0.00     0.115 C 
ATOM      8  C   UNL     1     108.349 140.085 127.628  1.00  0.00     0.102 C 
ATOM      9  C   UNL     1     107.184 138.250 126.370  1.00  0.00    -0.007 C 
ATOM     10  N   UNL     1     107.051 140.713 127.947  1.00  0.00    -0.298 NA
ATOM     11  C   UNL     1     106.130 138.443 127.183  1.00  0.00    -0.026 C 
ATOM     12  C   UNL     1     105.990 139.684 128.108  1.00  0.00     0.091 C 
ATOM     13  C   UNL     1     105.072 137.420 127.342  1.00  0.00    -0.011 A 
ATOM     14  C   UNL     1     105.844 139.284 129.624  1.00  0.00     0.061 C 
ATOM     15  C   UNL     1     104.515 137.395 128.632  1.00  0.00     0.010 A 
ATOM     16  C   UNL     1     104.597 136.493 126.412  1.00  0.00     0.009 A 
ATOM     17  C   UNL     1     104.808 138.211 129.753  1.00  0.00    -0.020 A 
ATOM     18  C   UNL     1     103.529 136.490 128.982  1.00  0.00     0.046 A 
ATOM     19  C   UNL     1     103.594 135.581 126.773  1.00  0.00     0.003 A 
ATOM     20  C   UNL     1     103.997 137.789 130.781  1.00  0.00     0.087 A 
ATOM     21  N   UNL     1     103.229 136.747 130.303  1.00  0.00    -0.361 N 
ATOM     22  C   UNL     1     103.038 135.558 128.065  1.00  0.00     0.027 A 
ATOM     23  C   UNL     1     106.672 141.713 126.949  1.00  0.00     0.106 C 
ATOM     24  H   UNL     1     102.543 136.240 130.844  1.00  0.00     0.166 HD
ENDBRANCH   5   7
ENDBRANCH   1   3
BRANCH   1  25
ATOM     25  C   UNL     1     108.855 135.351 124.543  1.00  0.00     0.180 C 
BRANCH  25  26
ATOM     26  O   UNL     1     110.221 135.514 124.186  1.00  0.00    -0.394 OA
ATOM     27  H   UNL     1     110.753 135.224 124.949  1.00  0.00     0.210 HD
ENDBRANCH  25  26
ENDBRANCH   1  25
TORSDOF 4
ENDMDL
MODEL 14
REMARK VINA RESULT:    -7.303      2.955      6.550
REMARK INTER + INTRA:          -9.143
REMARK INTER:                  -9.768
REMARK INTRA:                   0.626
REMARK UNBOUND:                -0.345
REMARK SMILES C[C@@H](CO)NC(=O)[C@@H]1C=C2c3cccc4[nH]cc(c34)C[C@H]2N(C)C1
REMARK SMILES IDX 2 1 1 2 5 3 7 4 6 5 8 7 24 8 9 9 22 10 10 11 21 12 11 13
REMARK SMILES IDX 20 14 19 15 12 16 18 17 15 18 13 19 17 20 16 21 14 22 23 23
REMARK SMILES IDX 3 25 4 26
REMARK H PARENT 5 6 16 24 4 27
ROOT
ATOM      1  C   UNL     1     107.318 138.684 127.368  1.00  0.00     0.104 C 
ATOM      2  C   UNL     1     108.263 137.866 128.248  1.00  0.00     0.033 C 
ENDROOT
BRANCH   1   3
ATOM      3  N   UNL     1     106.533 139.594 128.201  1.00  0.00    -0.351 N 
ATOM      4  O   UNL     1     104.663 140.554 128.935  1.00  0.00    -0.274 OA
ATOM      5  C   UNL     1     105.191 139.541 128.476  1.00  0.00     0.228 C 
ATOM      6  H   UNL     1     106.917 140.516 128.379  1.00  0.00     0.163 HD
BRANCH   5   7
ATOM      7  C   UNL     1     104.432 138.230 128.231  1.00  0.00     0.115 C 
ATOM      8  C   UNL     1     104.439 137.372 129.518  1.00  0.00     0.102 C 
ATOM      9  C   UNL     1     105.068 137.472 127.088  1.00  0.00    -0.007 C 
ATOM     10  N   UNL     1     103.917 136.002 129.343  1.00  0.00    -0.298 NA
ATOM     11  C   UNL     1     105.212 136.135 127.131  1.00  0.00    -0.026 C 
ATOM     12  C   UNL     1     104.695 135.266 128.312  1.00  0.00     0.091 C 
ATOM     13  C   UNL     1     105.984 135.402 126.104  1.00  0.00    -0.011 A 
ATOM     14  C   UNL     1     105.847 134.433 128.988  1.00  0.00     0.061 C 
ATOM     15  C   UNL     1     106.644 134.269 126.610  1.00  0.00     0.010 A 
ATOM     16  C   UNL     1     106.153 135.701 124.750  1.00  0.00     0.009 A 
ATOM     17  C   UNL     1     106.646 133.744 127.926  1.00  0.00    -0.020 A 
ATOM     18  C   UNL     1     107.436 133.468 125.807  1.00  0.00     0.046 A 
ATOM     19  C   UNL     1     106.954 134.882 123.941  1.00  0.00     0.003 A 
ATOM     20  C   UNL     1     107.448 132.626 127.912  1.00  0.00     0.087 A 
ATOM     21  N   UNL     1     107.921 132.470 126.625  1.00  0.00    -0.361 N 
ATOM     22  C   UNL     1     107.615 133.749 124.450  1.00  0.00     0.027 A 
ATOM     23  C   UNL     1     102.488 136.001 129.031  1.00  0.00     0.106 C 
ATOM     24  H   UNL     1     108.538 131.730 126.322  1.00  0.00     0.166 HD
ENDBRANCH   5   7
ENDBRANCH   1   3
BRANCH   1  25
ATOM     25  C   UNL     1     108.094 139.457 126.286  1.00  0.00     0.180 C 
BRANCH  25  26
ATOM     26  O   UNL     1     108.917 138.574 125.536  1.00  0.00    -0.394 OA
ATOM     27  H   UNL     1     109.637 139.107 125.155  1.00  0.00     0.210 HD
ENDBRANCH  25  26
ENDBRANCH   1  25
TORSDOF 4
ENDMDL
MODEL 15
REMARK VINA RESULT:    -7.277      3.418      7.072
REMARK INTER + INTRA:          -9.111
REMARK INTER:                  -9.415
REMARK INTRA:                   0.304
REMARK UNBOUND:                -0.345
REMARK SMILES C[C@@H](CO)NC(=O)[C@@H]1C=C2c3cccc4[nH]cc(c34)C[C@H]2N(C)C1
REMARK SMILES IDX 2 1 1 2 5 3 7 4 6 5 8 7 24 8 9 9 22 10 10 11 21 12 11 13
REMARK SMILES IDX 20 14 19 15 12 16 18 17 15 18 13 19 17 20 16 21 14 22 23 23
REMARK SMILES IDX 3 25 4 26
REMARK H PARENT 5 6 16 24 4 27
ROOT
ATOM      1  C   UNL     1     105.466 139.659 128.832  1.00  0.00     0.104 C 
ATOM      2  C   UNL     1     105.014 139.069 130.167  1.00  0.00     0.033 C 
ENDROOT
BRANCH   1   3
ATOM      3  N   UNL     1     106.832 139.226 128.540  1.00  0.00    -0.351 N 
ATOM      4  O   UNL     1     108.474 137.740 128.315  1.00  0.00    -0.274 OA
ATOM      5  C   UNL     1     107.268 137.966 128.223  1.00  0.00     0.228 C 
ATOM      6  H   UNL     1     107.590 139.815 128.866  1.00  0.00     0.163 HD
BRANCH   5   7
ATOM      7  C   UNL     1     106.248 136.924 127.744  1.00  0.00     0.115 C 
ATOM      8  C   UNL     1     105.848 136.003 128.921  1.00  0.00     0.102 C 
ATOM      9  C   UNL     1     106.834 136.110 126.614  1.00  0.00    -0.007 C 
ATOM     10  N   UNL     1     105.030 134.836 128.534  1.00  0.00    -0.298 NA
ATOM     11  C   UNL     1     106.629 134.783 126.528  1.00  0.00    -0.026 C 
ATOM     12  C   UNL     1     105.741 133.998 127.534  1.00  0.00     0.091 C 
ATOM     13  C   UNL     1     107.335 133.949 125.530  1.00  0.00    -0.011 A 
ATOM     14  C   UNL     1     106.533 132.843 128.252  1.00  0.00     0.061 C 
ATOM     15  C   UNL     1     107.606 132.649 125.988  1.00  0.00     0.010 A 
ATOM     16  C   UNL     1     107.773 134.291 124.249  1.00  0.00     0.009 A 
ATOM     17  C   UNL     1     107.281 132.047 127.229  1.00  0.00    -0.020 A 
ATOM     18  C   UNL     1     108.281 131.727 125.207  1.00  0.00     0.046 A 
ATOM     19  C   UNL     1     108.453 133.350 123.462  1.00  0.00     0.003 A 
ATOM     20  C   UNL     1     107.768 130.761 127.192  1.00  0.00     0.087 A 
ATOM     21  N   UNL     1     108.372 130.580 125.965  1.00  0.00    -0.361 N 
ATOM     22  C   UNL     1     108.724 132.049 123.922  1.00  0.00     0.027 A 
ATOM     23  C   UNL     1     103.709 135.236 128.049  1.00  0.00     0.106 C 
ATOM     24  H   UNL     1     108.821 129.726 125.662  1.00  0.00     0.166 HD
ENDBRANCH   5   7
ENDBRANCH   1   3
BRANCH   1  25
ATOM     25  C   UNL     1     104.506 139.263 127.696  1.00  0.00     0.180 C 
BRANCH  25  26
ATOM     26  O   UNL     1     103.220 138.949 128.214  1.00  0.00    -0.394 OA
ATOM     27  H   UNL     1     103.295 138.088 128.663  1.00  0.00     0.210 HD
ENDBRANCH  25  26
ENDBRANCH   1  25
TORSDOF 4
ENDMDL
MODEL 16
REMARK VINA RESULT:    -7.231      3.388      4.078
REMARK INTER + INTRA:          -9.056
REMARK INTER:                  -9.307
REMARK INTRA:                   0.251
REMARK UNBOUND:                -0.345
REMARK SMILES C[C@@H](CO)NC(=O)[C@@H]1C=C2c3cccc4[nH]cc(c34)C[C@H]2N(C)C1
REMARK SMILES IDX 2 1 1 2 5 3 7 4 6 5 8 7 24 8 9 9 22 10 10 11 21 12 11 13
REMARK SMILES IDX 20 14 19 15 12 16 18 17 15 18 13 19 17 20 16 21 14 22 23 23
REMARK SMILES IDX 3 25 4 26
REMARK H PARENT 5 6 16 24 4 27
ROOT
ATOM      1  C   UNL     1     103.142 135.143 127.798  1.00  0.00     0.104 C 
ATOM      2  C   UNL     1     102.000 134.131 127.710  1.00  0.00     0.033 C 
ENDROOT
BRANCH   1   3
ATOM      3  N   UNL     1     103.520 135.578 126.455  1.00  0.00    -0.351 N 
ATOM      4  O   UNL     1     104.355 136.990 124.950  1.00  0.00    -0.274 OA
ATOM      5  C   UNL     1     104.402 136.567 126.105  1.00  0.00     0.228 C 
ATOM      6  H   UNL     1     102.889 135.351 125.693  1.00  0.00     0.163 HD
BRANCH   5   7
ATOM      7  C   UNL     1     105.411 137.068 127.147  1.00  0.00     0.115 C 
ATOM      8  C   UNL     1     104.964 138.446 127.689  1.00  0.00     0.102 C 
ATOM      9  C   UNL     1     106.786 137.165 126.527  1.00  0.00    -0.007 C 
ATOM     10  N   UNL     1     105.961 139.119 128.545  1.00  0.00    -0.298 NA
ATOM     11  C   UNL     1     107.606 138.195 126.806  1.00  0.00    -0.026 C 
ATOM     12  C   UNL     1     107.239 139.321 127.813  1.00  0.00     0.091 C 
ATOM     13  C   UNL     1     108.880 138.394 126.079  1.00  0.00    -0.011 A 
ATOM     14  C   UNL     1     107.269 140.747 127.148  1.00  0.00     0.061 C 
ATOM     15  C   UNL     1     109.222 139.748 125.922  1.00  0.00     0.010 A 
ATOM     16  C   UNL     1     109.736 137.440 125.526  1.00  0.00     0.009 A 
ATOM     17  C   UNL     1     108.541 140.905 126.376  1.00  0.00    -0.020 A 
ATOM     18  C   UNL     1     110.366 140.137 125.247  1.00  0.00     0.046 A 
ATOM     19  C   UNL     1     110.896 137.841 124.847  1.00  0.00     0.003 A 
ATOM     20  C   UNL     1     109.278 141.992 125.965  1.00  0.00     0.087 A 
ATOM     21  N   UNL     1     110.379 141.515 125.283  1.00  0.00    -0.361 N 
ATOM     22  C   UNL     1     111.237 139.197 124.691  1.00  0.00     0.027 A 
ATOM     23  C   UNL     1     106.176 138.397 129.799  1.00  0.00     0.106 C 
ATOM     24  H   UNL     1     111.095 142.092 124.865  1.00  0.00     0.166 HD
ENDBRANCH   5   7
ENDBRANCH   1   3
BRANCH   1  25
ATOM     25  C   UNL     1     102.751 136.345 128.678  1.00  0.00     0.180 C 
BRANCH  25  26
ATOM     26  O   UNL     1     101.444 136.172 129.208  1.00  0.00    -0.394 OA
ATOM     27  H   UNL     1     101.130 137.050 129.489  1.00  0.00     0.210 HD
ENDBRANCH  25  26
ENDBRANCH   1  25
TORSDOF 4
ENDMDL
MODEL 17
REMARK VINA RESULT:    -6.970      3.716      6.068
REMARK INTER + INTRA:          -8.742
REMARK INTER:                  -8.609
REMARK INTRA:                  -0.133
REMARK UNBOUND:                -0.345
REMARK SMILES C[C@@H](CO)NC(=O)[C@@H]1C=C2c3cccc4[nH]cc(c34)C[C@H]2N(C)C1
REMARK SMILES IDX 2 1 1 2 5 3 7 4 6 5 8 7 24 8 9 9 22 10 10 11 21 12 11 13
REMARK SMILES IDX 20 14 19 15 12 16 18 17 15 18 13 19 17 20 16 21 14 22 23 23
REMARK SMILES IDX 3 25 4 26
REMARK H PARENT 5 6 16 24 4 27
ROOT
ATOM      1  C   UNL     1     107.292 132.789 125.780  1.00  0.00     0.104 C 
ATOM      2  C   UNL     1     107.462 131.320 125.393  1.00  0.00     0.033 C 
ENDROOT
BRANCH   1   3
ATOM      3  N   UNL     1     107.676 132.977 127.178  1.00  0.00    -0.351 N 
ATOM      4  O   UNL     1     108.358 134.150 128.943  1.00  0.00    -0.274 OA
ATOM      5  C   UNL     1     107.722 134.148 127.890  1.00  0.00     0.228 C 
ATOM      6  H   UNL     1     108.236 132.252 127.613  1.00  0.00     0.163 HD
BRANCH   5   7
ATOM      7  C   UNL     1     106.961 135.371 127.360  1.00  0.00     0.115 C 
ATOM      8  C   UNL     1     107.488 136.653 128.047  1.00  0.00     0.102 C 
ATOM      9  C   UNL     1     105.481 135.208 127.615  1.00  0.00    -0.007 C 
ATOM     10  N   UNL     1     106.694 137.867 127.770  1.00  0.00    -0.298 NA
ATOM     11  C   UNL     1     104.722 136.244 128.016  1.00  0.00    -0.026 C 
ATOM     12  C   UNL     1     105.281 137.684 128.192  1.00  0.00     0.091 C 
ATOM     13  C   UNL     1     103.314 136.062 128.434  1.00  0.00    -0.011 A 
ATOM     14  C   UNL     1     105.073 138.229 129.654  1.00  0.00     0.061 C 
ATOM     15  C   UNL     1     102.917 136.954 129.444  1.00  0.00     0.010 A 
ATOM     16  C   UNL     1     102.376 135.130 127.985  1.00  0.00     0.009 A 
ATOM     17  C   UNL     1     103.657 137.986 130.074  1.00  0.00    -0.020 A 
ATOM     18  C   UNL     1     101.643 136.923 129.983  1.00  0.00     0.046 A 
ATOM     19  C   UNL     1     101.085 135.107 128.534  1.00  0.00     0.003 A 
ATOM     20  C   UNL     1     102.823 138.571 130.999  1.00  0.00     0.087 A 
ATOM     21  N   UNL     1     101.609 137.919 130.936  1.00  0.00    -0.361 N 
ATOM     22  C   UNL     1     100.690 136.001 129.545  1.00  0.00     0.027 A 
ATOM     23  C   UNL     1     106.781 138.263 126.364  1.00  0.00     0.106 C 
ATOM     24  H   UNL     1     100.805 138.138 131.508  1.00  0.00     0.166 HD
ENDBRANCH   5   7
ENDBRANCH   1   3
BRANCH   1  25
ATOM     25  C   UNL     1     108.110 133.706 124.853  1.00  0.00     0.180 C 
BRANCH  25  26
ATOM     26  O   UNL     1     107.253 134.411 123.965  1.00  0.00    -0.394 OA
ATOM     27  H   UNL     1     106.571 133.783 123.667  1.00  0.00     0.210 HD
ENDBRANCH  25  26
ENDBRANCH   1  25
TORSDOF 4
ENDMDL
MODEL 18
REMARK VINA RESULT:    -6.963      2.809      6.205
REMARK INTER + INTRA:          -8.733
REMARK INTER:                  -9.295
REMARK INTRA:                   0.563
REMARK UNBOUND:                -0.345
REMARK SMILES C[C@@H](CO)NC(=O)[C@@H]1C=C2c3cccc4[nH]cc(c34)C[C@H]2N(C)C1
REMARK SMILES IDX 2 1 1 2 5 3 7 4 6 5 8 7 24 8 9 9 22 10 10 11 21 12 11 13
REMARK SMILES IDX 20 14 19 15 12 16 18 17 15 18 13 19 17 20 16 21 14 22 23 23
REMARK SMILES IDX 3 25 4 26
REMARK H PARENT 5 6 16 24 4 27
ROOT
ATOM      1  C   UNL     1     104.517 137.279 127.812  1.00  0.00     0.104 C 
ATOM      2  C   UNL     1     104.350 137.187 126.295  1.00  0.00     0.033 C 
ENDROOT
BRANCH   1   3
ATOM      3  N   UNL     1     104.534 138.682 128.221  1.00  0.00    -0.351 N 
ATOM      4  O   UNL     1     105.308 140.453 129.327  1.00  0.00    -0.274 OA
ATOM      5  C   UNL     1     105.573 139.388 128.770  1.00  0.00     0.228 C 
ATOM      6  H   UNL     1     103.642 139.132 128.395  1.00  0.00     0.163 HD
BRANCH   5   7
ATOM      7  C   UNL     1     107.000 138.838 128.638  1.00  0.00     0.115 C 
ATOM      8  C   UNL     1     107.669 139.419 127.370  1.00  0.00     0.102 C 
ATOM      9  C   UNL     1     106.965 137.328 128.571  1.00  0.00    -0.007 C 
ATOM     10  N   UNL     1     108.967 138.804 127.027  1.00  0.00    -0.298 NA
ATOM     11  C   UNL     1     107.770 136.648 127.734  1.00  0.00    -0.026 C 
ATOM     12  C   UNL     1     108.823 137.339 126.824  1.00  0.00     0.091 C 
ATOM     13  C   UNL     1     107.628 135.188 127.533  1.00  0.00    -0.011 A 
ATOM     14  C   UNL     1     108.594 137.020 125.299  1.00  0.00     0.061 C 
ATOM     15  C   UNL     1     107.950 134.775 126.229  1.00  0.00     0.010 A 
ATOM     16  C   UNL     1     107.203 134.213 128.437  1.00  0.00     0.009 A 
ATOM     17  C   UNL     1     108.400 135.545 125.128  1.00  0.00    -0.020 A 
ATOM     18  C   UNL     1     107.855 133.451 125.840  1.00  0.00     0.046 A 
ATOM     19  C   UNL     1     107.113 132.871 128.036  1.00  0.00     0.003 A 
ATOM     20  C   UNL     1     108.570 134.678 124.074  1.00  0.00     0.087 A 
ATOM     21  N   UNL     1     108.237 133.415 124.516  1.00  0.00    -0.361 N 
ATOM     22  C   UNL     1     107.435 132.460 126.731  1.00  0.00     0.027 A 
ATOM     23  C   UNL     1     109.991 139.102 128.030  1.00  0.00     0.106 C 
ATOM     24  H   UNL     1     108.265 132.578 123.950  1.00  0.00     0.166 HD
ENDBRANCH   5   7
ENDBRANCH   1   3
BRANCH   1  25
ATOM     25  C   UNL     1     103.403 136.505 128.541  1.00  0.00     0.180 C 
BRANCH  25  26
ATOM     26  O   UNL     1     103.840 135.192 128.868  1.00  0.00    -0.394 OA
ATOM     27  H   UNL     1     104.774 135.259 129.136  1.00  0.00     0.210 HD
ENDBRANCH  25  26
ENDBRANCH   1  25
TORSDOF 4
ENDMDL
MODEL 19
REMARK VINA RESULT:    -6.961      3.758      7.438
REMARK INTER + INTRA:          -8.731
REMARK INTER:                  -8.575
REMARK INTRA:                  -0.156
REMARK UNBOUND:                -0.345
REMARK SMILES C[C@@H](CO)NC(=O)[C@@H]1C=C2c3cccc4[nH]cc(c34)C[C@H]2N(C)C1
REMARK SMILES IDX 2 1 1 2 5 3 7 4 6 5 8 7 24 8 9 9 22 10 10 11 21 12 11 13
REMARK SMILES IDX 20 14 19 15 12 16 18 17 15 18 13 19 17 20 16 21 14 22 23 23
REMARK SMILES IDX 3 25 4 26
REMARK H PARENT 5 6 16 24 4 27
ROOT
ATOM      1  C   UNL     1     109.686 140.233 126.779  1.00  0.00     0.104 C 
ATOM      2  C   UNL     1     110.693 141.379 126.860  1.00  0.00     0.033 C 
ENDROOT
BRANCH   1   3
ATOM      3  N   UNL     1     108.326 140.770 126.796  1.00  0.00    -0.351 N 
ATOM      4  O   UNL     1     106.108 140.654 126.649  1.00  0.00    -0.274 OA
ATOM      5  C   UNL     1     107.151 140.086 126.971  1.00  0.00     0.228 C 
ATOM      6  H   UNL     1     108.173 141.674 126.363  1.00  0.00     0.163 HD
BRANCH   5   7
ATOM      7  C   UNL     1     107.192 138.679 127.581  1.00  0.00     0.115 C 
ATOM      8  C   UNL     1     107.150 137.618 126.456  1.00  0.00     0.102 C 
ATOM      9  C   UNL     1     106.027 138.493 128.526  1.00  0.00    -0.007 C 
ATOM     10  N   UNL     1     106.977 136.230 126.930  1.00  0.00    -0.298 NA
ATOM     11  C   UNL     1     105.346 137.333 128.574  1.00  0.00    -0.026 C 
ATOM     12  C   UNL     1     105.727 136.091 127.721  1.00  0.00     0.091 C 
ATOM     13  C   UNL     1     104.102 137.194 129.364  1.00  0.00    -0.011 A 
ATOM     14  C   UNL     1     104.545 135.619 126.796  1.00  0.00     0.061 C 
ATOM     15  C   UNL     1     103.177 136.307 128.789  1.00  0.00     0.010 A 
ATOM     16  C   UNL     1     103.737 137.833 130.551  1.00  0.00     0.009 A 
ATOM     17  C   UNL     1     103.288 135.537 127.605  1.00  0.00    -0.020 A 
ATOM     18  C   UNL     1     101.944 136.063 129.368  1.00  0.00     0.046 A 
ATOM     19  C   UNL     1     102.487 137.578 131.134  1.00  0.00     0.003 A 
ATOM     20  C   UNL     1     102.113 134.833 127.471  1.00  0.00     0.087 A 
ATOM     21  N   UNL     1     101.308 135.161 128.543  1.00  0.00    -0.361 N 
ATOM     22  C   UNL     1     101.563 136.690 130.557  1.00  0.00     0.027 A 
ATOM     23  C   UNL     1     108.139 135.768 127.688  1.00  0.00     0.106 C 
ATOM     24  H   UNL     1     100.380 134.793 128.702  1.00  0.00     0.166 HD
ENDBRANCH   5   7
ENDBRANCH   1   3
BRANCH   1  25
ATOM     25  C   UNL     1     109.923 139.371 125.525  1.00  0.00     0.180 C 
BRANCH  25  26
ATOM     26  O   UNL     1     111.246 139.553 125.038  1.00  0.00    -0.394 OA
ATOM     27  H   UNL     1     111.694 138.690 125.096  1.00  0.00     0.210 HD
ENDBRANCH  25  26
ENDBRANCH   1  25
TORSDOF 4
ENDMDL
