MODEL 1
REMARK VINA RESULT:    -8.297      0.000      0.000
REMARK INTER + INTRA:         -10.403
REMARK INTER:                  -9.994
REMARK INTRA:                  -0.408
REMARK UNBOUND:                -0.408
REMARK SMILES C[C@@H](CO)NC(=O)[C@@H]1C=C2c3cccc4[nH]cc(c34)C[C@H]2N(C)C1
REMARK SMILES IDX 2 1 1 2 5 3 7 4 6 5 8 7 24 8 9 9 22 10 10 11 21 12 11 13
REMARK SMILES IDX 20 14 19 15 12 16 18 17 15 18 13 19 17 20 16 21 14 22 23 23
REMARK SMILES IDX 3 25 4 26
REMARK H PARENT 5 6 16 24 4 27
ROOT
ATOM      1  C   UNL     1      18.379  20.997  11.541  1.00  0.00     0.104 C 
ATOM      2  C   UNL     1      17.774  21.985  10.544  1.00  0.00     0.033 C 
ENDROOT
BRANCH   1   3
ATOM      3  N   UNL     1      19.838  21.041  11.453  1.00  0.00    -0.351 N 
ATOM      4  O   UNL     1      21.888  20.172  11.465  1.00  0.00    -0.274 OA
ATOM      5  C   UNL     1      20.699  20.006  11.195  1.00  0.00     0.228 C 
ATOM      6  H   UNL     1      20.311  21.821  11.895  1.00  0.00     0.163 HD
BRANCH   5   7
ATOM      7  C   UNL     1      20.149  18.722  10.559  1.00  0.00     0.115 C 
ATOM      8  C   UNL     1      20.328  17.536  11.537  1.00  0.00     0.102 C 
ATOM      9  C   UNL     1      20.865  18.444   9.258  1.00  0.00    -0.007 C 
ATOM     10  N   UNL     1      20.024  16.213  10.955  1.00  0.00    -0.298 NA
ATOM     11  C   UNL     1      21.219  17.194   8.908  1.00  0.00    -0.026 C 
ATOM     12  C   UNL     1      20.879  15.946   9.769  1.00  0.00     0.091 C 
ATOM     13  C   UNL     1      22.068  16.928   7.725  1.00  0.00    -0.011 A 
ATOM     14  C   UNL     1      22.166  15.145  10.193  1.00  0.00     0.061 C 
ATOM     15  C   UNL     1      22.912  15.816   7.889  1.00  0.00     0.010 A 
ATOM     16  C   UNL     1      22.150  17.634   6.524  1.00  0.00     0.009 A 
ATOM     17  C   UNL     1      23.034  14.935   8.992  1.00  0.00    -0.020 A 
ATOM     18  C   UNL     1      23.798  15.423   6.902  1.00  0.00     0.046 A 
ATOM     19  C   UNL     1      23.048  17.227   5.526  1.00  0.00     0.003 A 
ATOM     20  C   UNL     1      24.001  14.013   8.665  1.00  0.00     0.087 A 
ATOM     21  N   UNL     1      24.457  14.319   7.399  1.00  0.00    -0.361 N 
ATOM     22  C   UNL     1      23.893  16.115   5.692  1.00  0.00     0.027 A 
ATOM     23  C   UNL     1      18.605  16.077  10.628  1.00  0.00     0.106 C 
ATOM     24  H   UNL     1      25.175  13.808   6.904  1.00  0.00     0.166 HD
ENDBRANCH   5   7
ENDBRANCH   1   3
BRANCH   1  25
ATOM     25  C   UNL     1      17.903  21.293  12.975  1.00  0.00     0.180 C 
BRANCH  25  26
ATOM     26  O   UNL     1      17.085  20.235  13.457  1.00  0.00    -0.394 OA
ATOM     27  H   UNL     1      16.171  20.570  13.487  1.00  0.00     0.210 HD
ENDBRANCH  25  26
ENDBRANCH   1  25
TORSDOF 4
ENDMDL
MODEL 2
REMARK VINA RESULT:    -8.208      2.388      7.701
REMARK INTER + INTRA:         -10.295
REMARK INTER:                  -9.899
REMARK INTRA:                  -0.396
REMARK UNBOUND:                -0.408
REMARK SMILES C[C@@H](CO)NC(=O)[C@@H]1C=C2c3cccc4[nH]cc(c34)C[C@H]2N(C)C1
REMARK SMILES IDX 2 1 1 2 5 3 7 4 6 5 8 7 24 8 9 9 22 10 10 11 21 12 11 13
REMARK SMILES IDX 20 14 19 15 12 16 18 17 15 18 13 19 17 20 16 21 14 22 23 23
REMARK SMILES IDX 3 25 4 26
REMARK H PARENT 5 6 16 24 4 27
ROOT
ATOM      1  C   UNL     1      22.155  16.768   8.103  1.00  0.00     0.104 C 
ATOM      2  C   UNL     1      22.268  17.254   6.659  1.00  0.00     0.033 C 
ENDROOT
BRANCH   1   3
ATOM      3  N   UNL     1      20.747  16.586   8.453  1.00  0.00    -0.351 N 
ATOM      4  O   UNL     1      18.980  16.634   9.807  1.00  0.00    -0.274 OA
ATOM      5  C   UNL     1      20.059  17.142   9.499  1.00  0.00     0.228 C 
ATOM      6  H   UNL     1      20.275  15.766   8.086  1.00  0.00     0.163 HD
BRANCH   5   7
ATOM      7  C   UNL     1      20.643  18.373  10.205  1.00  0.00     0.115 C 
ATOM      8  C   UNL     1      20.884  18.055  11.700  1.00  0.00     0.102 C 
ATOM      9  C   UNL     1      19.701  19.545  10.061  1.00  0.00    -0.007 C 
ATOM     10  N   UNL     1      21.252  19.224  12.523  1.00  0.00    -0.298 NA
ATOM     11  C   UNL     1      19.478  20.392  11.083  1.00  0.00    -0.026 C 
ATOM     12  C   UNL     1      20.201  20.273  12.454  1.00  0.00     0.091 C 
ATOM     13  C   UNL     1      18.434  21.438  11.013  1.00  0.00    -0.011 A 
ATOM     14  C   UNL     1      19.189  20.111  13.648  1.00  0.00     0.061 C 
ATOM     15  C   UNL     1      17.837  21.708  12.256  1.00  0.00     0.010 A 
ATOM     16  C   UNL     1      17.967  22.143   9.902  1.00  0.00     0.009 A 
ATOM     17  C   UNL     1      18.113  21.145  13.526  1.00  0.00    -0.020 A 
ATOM     18  C   UNL     1      16.821  22.638  12.389  1.00  0.00     0.046 A 
ATOM     19  C   UNL     1      16.940  23.088  10.046  1.00  0.00     0.003 A 
ATOM     20  C   UNL     1      17.254  21.737  14.424  1.00  0.00     0.087 A 
ATOM     21  N   UNL     1      16.478  22.637  13.725  1.00  0.00    -0.361 N 
ATOM     22  C   UNL     1      16.343  23.356  11.290  1.00  0.00     0.027 A 
ATOM     23  C   UNL     1      22.561  19.760  12.150  1.00  0.00     0.106 C 
ATOM     24  H   UNL     1      15.755  23.215  14.131  1.00  0.00     0.166 HD
ENDBRANCH   5   7
ENDBRANCH   1   3
BRANCH   1  25
ATOM     25  C   UNL     1      22.950  15.467   8.316  1.00  0.00     0.180 C 
BRANCH  25  26
ATOM     26  O   UNL     1      22.961  14.689   7.126  1.00  0.00    -0.394 OA
ATOM     27  H   UNL     1      22.713  13.780   7.376  1.00  0.00     0.210 HD
ENDBRANCH  25  26
ENDBRANCH   1  25
TORSDOF 4
ENDMDL
MODEL 3
REMARK VINA RESULT:    -8.097      2.336      2.807
REMARK INTER + INTRA:         -10.162
REMARK INTER:                  -9.723
REMARK INTRA:                  -0.439
REMARK UNBOUND:                -0.408
REMARK SMILES C[C@@H](CO)NC(=O)[C@@H]1C=C2c3cccc4[nH]cc(c34)C[C@H]2N(C)C1
REMARK SMILES IDX 2 1 1 2 5 3 7 4 6 5 8 7 24 8 9 9 22 10 10 11 21 12 11 13
REMARK SMILES IDX 20 14 19 15 12 16 18 17 15 18 13 19 17 20 16 21 14 22 23 23
REMARK SMILES IDX 3 25 4 26
REMARK H PARENT 5 6 16 24 4 27
ROOT
ATOM      1  C   UNL     1      20.773  23.056  13.219  1.00  0.00     0.104 C 
ATOM      2  C   UNL     1      20.286  23.717  11.930  1.00  0.00     0.033 C 
ENDROOT
BRANCH   1   3
ATOM      3  N   UNL     1      22.093  22.466  13.001  1.00  0.00    -0.351 N 
ATOM      4  O   UNL     1      23.560  20.798  12.861  1.00  0.00    -0.274 OA
ATOM      5  C   UNL     1      22.396  21.163  12.703  1.00  0.00     0.228 C 
ATOM      6  H   UNL     1      22.896  22.963  13.372  1.00  0.00     0.163 HD
BRANCH   5   7
ATOM      7  C   UNL     1      21.289  20.246  12.164  1.00  0.00     0.115 C 
ATOM      8  C   UNL     1      21.370  18.865  12.856  1.00  0.00     0.102 C 
ATOM      9  C   UNL     1      21.430  20.094  10.667  1.00  0.00    -0.007 C 
ATOM     10  N   UNL     1      20.487  17.835  12.272  1.00  0.00    -0.298 NA
ATOM     11  C   UNL     1      21.231  18.908  10.063  1.00  0.00    -0.026 C 
ATOM     12  C   UNL     1      20.792  17.630  10.832  1.00  0.00     0.091 C 
ATOM     13  C   UNL     1      21.532  18.705   8.628  1.00  0.00    -0.011 A 
ATOM     14  C   UNL     1      21.813  16.447  10.653  1.00  0.00     0.061 C 
ATOM     15  C   UNL     1      21.976  17.404   8.335  1.00  0.00     0.010 A 
ATOM     16  C   UNL     1      21.458  19.619   7.576  1.00  0.00     0.009 A 
ATOM     17  C   UNL     1      22.143  16.295   9.200  1.00  0.00    -0.020 A 
ATOM     18  C   UNL     1      22.330  17.028   7.051  1.00  0.00     0.046 A 
ATOM     19  C   UNL     1      21.815  19.229   6.276  1.00  0.00     0.003 A 
ATOM     20  C   UNL     1      22.605  15.251   8.432  1.00  0.00     0.087 A 
ATOM     21  N   UNL     1      22.715  15.707   7.135  1.00  0.00    -0.361 N 
ATOM     22  C   UNL     1      22.260  17.927   5.984  1.00  0.00     0.027 A 
ATOM     23  C   UNL     1      19.074  18.153  12.475  1.00  0.00     0.106 C 
ATOM     24  H   UNL     1      23.035  15.153   6.352  1.00  0.00     0.166 HD
ENDBRANCH   5   7
ENDBRANCH   1   3
BRANCH   1  25
ATOM     25  C   UNL     1      20.804  24.063  14.383  1.00  0.00     0.180 C 
BRANCH  25  26
ATOM     26  O   UNL     1      22.077  24.689  14.469  1.00  0.00    -0.394 OA
ATOM     27  H   UNL     1      22.350  24.657  15.403  1.00  0.00     0.210 HD
ENDBRANCH  25  26
ENDBRANCH   1  25
TORSDOF 4
ENDMDL
MODEL 4
REMARK VINA RESULT:    -8.067      2.173      3.652
REMARK INTER + INTRA:         -10.127
REMARK INTER:                  -9.659
REMARK INTRA:                  -0.467
REMARK UNBOUND:                -0.408
REMARK SMILES C[C@@H](CO)NC(=O)[C@@H]1C=C2c3cccc4[nH]cc(c34)C[C@H]2N(C)C1
REMARK SMILES IDX 2 1 1 2 5 3 7 4 6 5 8 7 24 8 9 9 22 10 10 11 21 12 11 13
REMARK SMILES IDX 20 14 19 15 12 16 18 17 15 18 13 19 17 20 16 21 14 22 23 23
REMARK SMILES IDX 3 25 4 26
REMARK H PARENT 5 6 16 24 4 27
ROOT
ATOM      1  C   UNL     1      20.537  18.206  13.085  1.00  0.00     0.104 C 
ATOM      2  C   UNL     1      21.645  17.828  14.067  1.00  0.00     0.033 C 
ENDROOT
BRANCH   1   3
ATOM      3  N   UNL     1      19.982  16.997  12.479  1.00  0.00    -0.351 N 
ATOM      4  O   UNL     1      19.231  15.743  10.800  1.00  0.00    -0.274 OA
ATOM      5  C   UNL     1      20.008  16.627  11.159  1.00  0.00     0.228 C 
ATOM      6  H   UNL     1      19.262  16.502  12.994  1.00  0.00     0.163 HD
BRANCH   5   7
ATOM      7  C   UNL     1      21.013  17.302  10.216  1.00  0.00     0.115 C 
ATOM      8  C   UNL     1      20.306  17.712   8.903  1.00  0.00     0.102 C 
ATOM      9  C   UNL     1      22.159  16.361   9.926  1.00  0.00    -0.007 C 
ATOM     10  N   UNL     1      21.215  18.184   7.840  1.00  0.00    -0.298 NA
ATOM     11  C   UNL     1      22.691  16.266   8.694  1.00  0.00    -0.026 C 
ATOM     12  C   UNL     1      22.219  17.142   7.499  1.00  0.00     0.091 C 
ATOM     13  C   UNL     1      23.692  15.230   8.355  1.00  0.00    -0.011 A 
ATOM     14  C   UNL     1      21.716  16.274   6.287  1.00  0.00     0.061 C 
ATOM     15  C   UNL     1      23.600  14.784   7.026  1.00  0.00     0.010 A 
ATOM     16  C   UNL     1      24.662  14.644   9.171  1.00  0.00     0.009 A 
ATOM     17  C   UNL     1      22.719  15.201   5.998  1.00  0.00    -0.020 A 
ATOM     18  C   UNL     1      24.435  13.800   6.529  1.00  0.00     0.046 A 
ATOM     19  C   UNL     1      25.509  13.650   8.658  1.00  0.00     0.003 A 
ATOM     20  C   UNL     1      23.025  14.459   4.881  1.00  0.00     0.087 A 
ATOM     21  N   UNL     1      24.063  13.614   5.214  1.00  0.00    -0.361 N 
ATOM     22  C   UNL     1      25.414  13.204   7.328  1.00  0.00     0.027 A 
ATOM     23  C   UNL     1      21.862  19.446   8.199  1.00  0.00     0.106 C 
ATOM     24  H   UNL     1      24.493  12.950   4.585  1.00  0.00     0.166 HD
ENDBRANCH   5   7
ENDBRANCH   1   3
BRANCH   1  25
ATOM     25  C   UNL     1      19.437  19.031  13.779  1.00  0.00     0.180 C 
BRANCH  25  26
ATOM     26  O   UNL     1      18.343  19.245  12.898  1.00  0.00    -0.394 OA
ATOM     27  H   UNL     1      18.523  20.070  12.413  1.00  0.00     0.210 HD
ENDBRANCH  25  26
ENDBRANCH   1  25
TORSDOF 4
ENDMDL
MODEL 5
REMARK VINA RESULT:    -7.708      2.693      7.548
REMARK INTER + INTRA:          -9.694
REMARK INTER:                  -9.375
REMARK INTRA:                  -0.319
REMARK UNBOUND:                -0.408
REMARK SMILES C[C@@H](CO)NC(=O)[C@@H]1C=C2c3cccc4[nH]cc(c34)C[C@H]2N(C)C1
REMARK SMILES IDX 2 1 1 2 5 3 7 4 6 5 8 7 24 8 9 9 22 10 10 11 21 12 11 13
REMARK SMILES IDX 20 14 19 15 12 16 18 17 15 18 13 19 17 20 16 21 14 22 23 23
REMARK SMILES IDX 3 25 4 26
REMARK H PARENT 5 6 16 24 4 27
ROOT
ATOM      1  C   UNL     1      21.925  16.370   7.835  1.00  0.00     0.104 C 
ATOM      2  C   UNL     1      23.102  15.944   8.712  1.00  0.00     0.033 C 
ENDROOT
BRANCH   1   3
ATOM      3  N   UNL     1      22.007  17.804   7.565  1.00  0.00    -0.351 N 
ATOM      4  O   UNL     1      21.385  19.934   7.759  1.00  0.00    -0.274 OA
ATOM      5  C   UNL     1      21.478  18.833   8.301  1.00  0.00     0.228 C 
ATOM      6  H   UNL     1      22.217  18.092   6.616  1.00  0.00     0.163 HD
BRANCH   5   7
ATOM      7  C   UNL     1      21.064  18.571   9.756  1.00  0.00     0.115 C 
ATOM      8  C   UNL     1      19.543  18.294   9.826  1.00  0.00     0.102 C 
ATOM      9  C   UNL     1      21.423  19.761  10.616  1.00  0.00    -0.007 C 
ATOM     10  N   UNL     1      18.995  18.231  11.196  1.00  0.00    -0.298 NA
ATOM     11  C   UNL     1      20.595  20.200  11.582  1.00  0.00    -0.026 C 
ATOM     12  C   UNL     1      19.252  19.499  11.928  1.00  0.00     0.091 C 
ATOM     13  C   UNL     1      20.852  21.461  12.313  1.00  0.00    -0.011 A 
ATOM     14  C   UNL     1      18.020  20.470  11.787  1.00  0.00     0.061 C 
ATOM     15  C   UNL     1      19.676  22.131  12.690  1.00  0.00     0.010 A 
ATOM     16  C   UNL     1      22.072  22.057  12.638  1.00  0.00     0.009 A 
ATOM     17  C   UNL     1      18.324  21.757  12.489  1.00  0.00    -0.020 A 
ATOM     18  C   UNL     1      19.711  23.340  13.361  1.00  0.00     0.046 A 
ATOM     19  C   UNL     1      22.099  23.281  13.322  1.00  0.00     0.003 A 
ATOM     20  C   UNL     1      17.546  22.750  13.037  1.00  0.00     0.087 A 
ATOM     21  N   UNL     1      18.395  23.703  13.561  1.00  0.00    -0.361 N 
ATOM     22  C   UNL     1      20.921  23.951  13.698  1.00  0.00     0.027 A 
ATOM     23  C   UNL     1      19.510  17.078  11.934  1.00  0.00     0.106 C 
ATOM     24  H   UNL     1      18.098  24.550  14.025  1.00  0.00     0.166 HD
ENDBRANCH   5   7
ENDBRANCH   1   3
BRANCH   1  25
ATOM     25  C   UNL     1      21.888  15.563   6.525  1.00  0.00     0.180 C 
BRANCH  25  26
ATOM     26  O   UNL     1      21.190  16.281   5.516  1.00  0.00    -0.394 OA
ATOM     27  H   UNL     1      21.214  17.222   5.766  1.00  0.00     0.210 HD
ENDBRANCH  25  26
ENDBRANCH   1  25
TORSDOF 4
ENDMDL
MODEL 6
REMARK VINA RESULT:    -7.566      3.906      6.571
REMARK INTER + INTRA:          -9.522
REMARK INTER:                  -9.152
REMARK INTRA:                  -0.370
REMARK UNBOUND:                -0.408
REMARK SMILES C[C@@H](CO)NC(=O)[C@@H]1C=C2c3cccc4[nH]cc(c34)C[C@H]2N(C)C1
REMARK SMILES IDX 2 1 1 2 5 3 7 4 6 5 8 7 24 8 9 9 22 10 10 11 21 12 11 13
REMARK SMILES IDX 20 14 19 15 12 16 18 17 15 18 13 19 17 20 16 21 14 22 23 23
REMARK SMILES IDX 3 25 4 26
REMARK H PARENT 5 6 16 24 4 27
ROOT
ATOM      1  C   UNL     1      17.541  22.757  11.907  1.00  0.00     0.104 C 
ATOM      2  C   UNL     1      18.405  23.719  12.722  1.00  0.00     0.033 C 
ENDROOT
BRANCH   1   3
ATOM      3  N   UNL     1      17.160  21.615  12.736  1.00  0.00    -0.351 N 
ATOM      4  O   UNL     1      17.138  19.469  13.329  1.00  0.00    -0.274 OA
ATOM      5  C   UNL     1      17.773  20.391  12.820  1.00  0.00     0.228 C 
ATOM      6  H   UNL     1      16.206  21.580  13.078  1.00  0.00     0.163 HD
BRANCH   5   7
ATOM      7  C   UNL     1      19.214  20.244  12.312  1.00  0.00     0.115 C 
ATOM      8  C   UNL     1      19.490  18.769  11.938  1.00  0.00     0.102 C 
ATOM      9  C   UNL     1      20.185  20.709  13.374  1.00  0.00    -0.007 C 
ATOM     10  N   UNL     1      20.903  18.469  11.632  1.00  0.00    -0.298 NA
ATOM     11  C   UNL     1      21.333  20.048  13.608  1.00  0.00    -0.026 C 
ATOM     12  C   UNL     1      21.779  18.808  12.784  1.00  0.00     0.091 C 
ATOM     13  C   UNL     1      22.207  20.387  14.753  1.00  0.00    -0.011 A 
ATOM     14  C   UNL     1      22.004  17.541  13.689  1.00  0.00     0.061 C 
ATOM     15  C   UNL     1      22.878  19.274  15.286  1.00  0.00     0.010 A 
ATOM     16  C   UNL     1      22.417  21.625  15.364  1.00  0.00     0.009 A 
ATOM     17  C   UNL     1      22.845  17.920  14.868  1.00  0.00    -0.020 A 
ATOM     18  C   UNL     1      23.721  19.385  16.377  1.00  0.00     0.046 A 
ATOM     19  C   UNL     1      23.277  21.731  16.467  1.00  0.00     0.003 A 
ATOM     20  C   UNL     1      23.670  17.217  15.716  1.00  0.00     0.087 A 
ATOM     21  N   UNL     1      24.193  18.114  16.625  1.00  0.00    -0.361 N 
ATOM     22  C   UNL     1      23.947  20.616  16.999  1.00  0.00     0.027 A 
ATOM     23  C   UNL     1      21.348  19.141  10.411  1.00  0.00     0.106 C 
ATOM     24  H   UNL     1      24.831  17.874  17.371  1.00  0.00     0.166 HD
ENDBRANCH   5   7
ENDBRANCH   1   3
BRANCH   1  25
ATOM     25  C   UNL     1      16.298  23.468  11.342  1.00  0.00     0.180 C 
BRANCH  25  26
ATOM     26  O   UNL     1      16.680  24.512  10.456  1.00  0.00    -0.394 OA
ATOM     27  H   UNL     1      16.524  24.191   9.550  1.00  0.00     0.210 HD
ENDBRANCH  25  26
ENDBRANCH   1  25
TORSDOF 4
ENDMDL
MODEL 7
REMARK VINA RESULT:    -7.479      3.172      7.051
REMARK INTER + INTRA:          -9.417
REMARK INTER:                  -9.030
REMARK INTRA:                  -0.387
REMARK UNBOUND:                -0.408
REMARK SMILES C[C@@H](CO)NC(=O)[C@@H]1C=C2c3cccc4[nH]cc(c34)C[C@H]2N(C)C1
REMARK SMILES IDX 2 1 1 2 5 3 7 4 6 5 8 7 24 8 9 9 22 10 10 11 21 12 11 13
REMARK SMILES IDX 20 14 19 15 12 16 18 17 15 18 13 19 17 20 16 21 14 22 23 23
REMARK SMILES IDX 3 25 4 26
REMARK H PARENT 5 6 16 24 4 27
ROOT
ATOM      1  C   UNL     1      21.856  16.466   7.574  1.00  0.00     0.104 C 
ATOM      2  C   UNL     1      22.830  15.833   8.568  1.00  0.00     0.033 C 
ENDROOT
BRANCH   1   3
ATOM      3  N   UNL     1      22.189  17.877   7.390  1.00  0.00    -0.351 N 
ATOM      4  O   UNL     1      21.787  20.067   7.421  1.00  0.00    -0.274 OA
ATOM      5  C   UNL     1      21.562  18.970   7.931  1.00  0.00     0.228 C 
ATOM      6  H   UNL     1      22.743  18.127   6.578  1.00  0.00     0.163 HD
BRANCH   5   7
ATOM      7  C   UNL     1      20.648  18.776   9.148  1.00  0.00     0.115 C 
ATOM      8  C   UNL     1      19.708  19.996   9.296  1.00  0.00     0.102 C 
ATOM      9  C   UNL     1      21.481  18.599  10.396  1.00  0.00    -0.007 C 
ATOM     10  N   UNL     1      18.925  20.017  10.549  1.00  0.00    -0.298 NA
ATOM     11  C   UNL     1      21.126  19.170  11.561  1.00  0.00    -0.026 C 
ATOM     12  C   UNL     1      19.822  19.998  11.734  1.00  0.00     0.091 C 
ATOM     13  C   UNL     1      22.017  19.149  12.742  1.00  0.00    -0.011 A 
ATOM     14  C   UNL     1      20.109  21.466  12.225  1.00  0.00     0.061 C 
ATOM     15  C   UNL     1      21.901  20.297  13.544  1.00  0.00     0.010 A 
ATOM     16  C   UNL     1      22.943  18.179  13.128  1.00  0.00     0.009 A 
ATOM     17  C   UNL     1      21.053  21.422  13.386  1.00  0.00    -0.020 A 
ATOM     18  C   UNL     1      22.671  20.473  14.680  1.00  0.00     0.046 A 
ATOM     19  C   UNL     1      23.717  18.362  14.284  1.00  0.00     0.003 A 
ATOM     20  C   UNL     1      21.321  22.278  14.429  1.00  0.00     0.087 A 
ATOM     21  N   UNL     1      22.302  21.694  15.205  1.00  0.00    -0.361 N 
ATOM     22  C   UNL     1      23.600  19.512  15.085  1.00  0.00     0.027 A 
ATOM     23  C   UNL     1      17.954  18.925  10.600  1.00  0.00     0.106 C 
ATOM     24  H   UNL     1      22.697  22.102  16.040  1.00  0.00     0.166 HD
ENDBRANCH   5   7
ENDBRANCH   1   3
BRANCH   1  25
ATOM     25  C   UNL     1      21.868  15.716   6.230  1.00  0.00     0.180 C 
BRANCH  25  26
ATOM     26  O   UNL     1      22.923  14.764   6.199  1.00  0.00    -0.394 OA
ATOM     27  H   UNL     1      22.616  13.979   6.687  1.00  0.00     0.210 HD
ENDBRANCH  25  26
ENDBRANCH   1  25
TORSDOF 4
ENDMDL
MODEL 8
REMARK VINA RESULT:    -7.468      5.352      8.167
REMARK INTER + INTRA:          -9.405
REMARK INTER:                  -9.008
REMARK INTRA:                  -0.397
REMARK UNBOUND:                -0.408
REMARK SMILES C[C@@H](CO)NC(=O)[C@@H]1C=C2c3cccc4[nH]cc(c34)C[C@H]2N(C)C1
REMARK SMILES IDX 2 1 1 2 5 3 7 4 6 5 8 7 24 8 9 9 22 10 10 11 21 12 11 13
REMARK SMILES IDX 20 14 19 15 12 16 18 17 15 18 13 19 17 20 16 21 14 22 23 23
REMARK SMILES IDX 3 25 4 26
REMARK H PARENT 5 6 16 24 4 27
ROOT
ATOM      1  C   UNL     1      24.645  18.811  16.218  1.00  0.00     0.104 C 
ATOM      2  C   UNL     1      25.962  18.161  15.792  1.00  0.00     0.033 C 
ENDROOT
BRANCH   1   3
ATOM      3  N   UNL     1      23.523  18.076  15.636  1.00  0.00    -0.351 N 
ATOM      4  O   UNL     1      21.436  17.828  14.903  1.00  0.00    -0.274 OA
ATOM      5  C   UNL     1      22.394  18.586  15.050  1.00  0.00     0.228 C 
ATOM      6  H   UNL     1      23.394  17.113  15.925  1.00  0.00     0.163 HD
BRANCH   5   7
ATOM      7  C   UNL     1      22.393  20.048  14.582  1.00  0.00     0.115 C 
ATOM      8  C   UNL     1      21.820  20.954  15.697  1.00  0.00     0.102 C 
ATOM      9  C   UNL     1      21.575  20.185  13.319  1.00  0.00    -0.007 C 
ATOM     10  N   UNL     1      21.580  22.352  15.287  1.00  0.00    -0.298 NA
ATOM     11  C   UNL     1      20.762  21.239  13.124  1.00  0.00    -0.026 C 
ATOM     12  C   UNL     1      20.641  22.413  14.136  1.00  0.00     0.091 C 
ATOM     13  C   UNL     1      19.829  21.301  11.977  1.00  0.00    -0.011 A 
ATOM     14  C   UNL     1      19.165  22.610  14.645  1.00  0.00     0.061 C 
ATOM     15  C   UNL     1      18.636  21.982  12.270  1.00  0.00     0.010 A 
ATOM     16  C   UNL     1      19.971  20.762  10.697  1.00  0.00     0.009 A 
ATOM     17  C   UNL     1      18.235  22.616  13.473  1.00  0.00    -0.020 A 
ATOM     18  C   UNL     1      17.628  22.123  11.332  1.00  0.00     0.046 A 
ATOM     19  C   UNL     1      18.947  20.913   9.750  1.00  0.00     0.003 A 
ATOM     20  C   UNL     1      16.979  23.134  13.255  1.00  0.00     0.087 A 
ATOM     21  N   UNL     1      16.622  22.829  11.958  1.00  0.00    -0.361 N 
ATOM     22  C   UNL     1      17.753  21.594  10.045  1.00  0.00     0.027 A 
ATOM     23  C   UNL     1      22.829  23.053  14.990  1.00  0.00     0.106 C 
ATOM     24  H   UNL     1      15.746  23.084  11.524  1.00  0.00     0.166 HD
ENDBRANCH   5   7
ENDBRANCH   1   3
BRANCH   1  25
ATOM     25  C   UNL     1      24.528  18.876  17.751  1.00  0.00     0.180 C 
BRANCH  25  26
ATOM     26  O   UNL     1      24.150  17.611  18.277  1.00  0.00    -0.394 OA
ATOM     27  H   UNL     1      24.789  16.958  17.940  1.00  0.00     0.210 HD
ENDBRANCH  25  26
ENDBRANCH   1  25
TORSDOF 4
ENDMDL
MODEL 9
REMARK VINA RESULT:    -7.440      3.902      9.890
REMARK INTER + INTRA:          -9.371
REMARK INTER:                  -9.019
REMARK INTRA:                  -0.352
REMARK UNBOUND:                -0.408
REMARK SMILES C[C@@H](CO)NC(=O)[C@@H]1C=C2c3cccc4[nH]cc(c34)C[C@H]2N(C)C1
REMARK SMILES IDX 2 1 1 2 5 3 7 4 6 5 8 7 24 8 9 9 22 10 10 11 21 12 11 13
REMARK SMILES IDX 20 14 19 15 12 16 18 17 15 18 13 19 17 20 16 21 14 22 23 23
REMARK SMILES IDX 3 25 4 26
REMARK H PARENT 5 6 16 24 4 27
ROOT
ATOM      1  C   UNL     1      19.803  20.085  10.322  1.00  0.00     0.104 C 
ATOM      2  C   UNL     1      18.418  20.539   9.863  1.00  0.00     0.033 C 
ENDROOT
BRANCH   1   3
ATOM      3  N   UNL     1      19.684  19.319  11.562  1.00  0.00    -0.351 N 
ATOM      4  O   UNL     1      19.895  18.976  13.751  1.00  0.00    -0.274 OA
ATOM      5  C   UNL     1      19.698  19.789  12.849  1.00  0.00     0.228 C 
ATOM      6  H   UNL     1      19.895  18.327  11.522  1.00  0.00     0.163 HD
BRANCH   5   7
ATOM      7  C   UNL     1      19.436  21.281  13.100  1.00  0.00     0.115 C 
ATOM      8  C   UNL     1      20.245  21.755  14.330  1.00  0.00     0.102 C 
ATOM      9  C   UNL     1      17.959  21.515  13.317  1.00  0.00    -0.007 C 
ATOM     10  N   UNL     1      19.916  23.119  14.790  1.00  0.00    -0.298 NA
ATOM     11  C   UNL     1      17.519  22.376  14.253  1.00  0.00    -0.026 C 
ATOM     12  C   UNL     1      18.474  23.229  15.134  1.00  0.00     0.091 C 
ATOM     13  C   UNL     1      16.083  22.488  14.594  1.00  0.00    -0.011 A 
ATOM     14  C   UNL     1      18.258  22.968  16.671  1.00  0.00     0.061 C 
ATOM     15  C   UNL     1      15.858  22.798  15.945  1.00  0.00     0.010 A 
ATOM     16  C   UNL     1      14.967  22.303  13.775  1.00  0.00     0.009 A 
ATOM     17  C   UNL     1      16.795  23.033  16.982  1.00  0.00    -0.020 A 
ATOM     18  C   UNL     1      14.580  22.920  16.461  1.00  0.00     0.046 A 
ATOM     19  C   UNL     1      13.675  22.433  14.304  1.00  0.00     0.003 A 
ATOM     20  C   UNL     1      16.074  23.291  18.125  1.00  0.00     0.087 A 
ATOM     21  N   UNL     1      14.736  23.219  17.798  1.00  0.00    -0.361 N 
ATOM     22  C   UNL     1      13.451  22.742  15.657  1.00  0.00     0.027 A 
ATOM     23  C   UNL     1      20.306  24.131  13.809  1.00  0.00     0.106 C 
ATOM     24  H   UNL     1      13.974  23.363  18.446  1.00  0.00     0.166 HD
ENDBRANCH   5   7
ENDBRANCH   1   3
BRANCH   1  25
ATOM     25  C   UNL     1      20.509  19.262   9.230  1.00  0.00     0.180 C 
BRANCH  25  26
ATOM     26  O   UNL     1      20.176  19.756   7.939  1.00  0.00    -0.394 OA
ATOM     27  H   UNL     1      20.896  20.352   7.665  1.00  0.00     0.210 HD
ENDBRANCH  25  26
ENDBRANCH   1  25
TORSDOF 4
ENDMDL
MODEL 10
REMARK VINA RESULT:    -7.427      1.662      2.099
REMARK INTER + INTRA:          -9.355
REMARK INTER:                  -9.165
REMARK INTRA:                  -0.190
REMARK UNBOUND:                -0.408
REMARK SMILES C[C@@H](CO)NC(=O)[C@@H]1C=C2c3cccc4[nH]cc(c34)C[C@H]2N(C)C1
REMARK SMILES IDX 2 1 1 2 5 3 7 4 6 5 8 7 24 8 9 9 22 10 10 11 21 12 11 13
REMARK SMILES IDX 20 14 19 15 12 16 18 17 15 18 13 19 17 20 16 21 14 22 23 23
REMARK SMILES IDX 3 25 4 26
REMARK H PARENT 5 6 16 24 4 27
ROOT
ATOM      1  C   UNL     1      19.224  20.243  10.248  1.00  0.00     0.104 C 
ATOM      2  C   UNL     1      17.970  21.089  10.030  1.00  0.00     0.033 C 
ENDROOT
BRANCH   1   3
ATOM      3  N   UNL     1      20.128  20.400   9.110  1.00  0.00    -0.351 N 
ATOM      4  O   UNL     1      21.879  19.882   7.835  1.00  0.00    -0.274 OA
ATOM      5  C   UNL     1      20.990  19.473   8.582  1.00  0.00     0.228 C 
ATOM      6  H   UNL     1      20.380  21.344   8.838  1.00  0.00     0.163 HD
BRANCH   5   7
ATOM      7  C   UNL     1      20.785  17.990   8.919  1.00  0.00     0.115 C 
ATOM      8  C   UNL     1      21.432  17.669  10.287  1.00  0.00     0.102 C 
ATOM      9  C   UNL     1      21.390  17.128   7.835  1.00  0.00    -0.007 C 
ATOM     10  N   UNL     1      21.478  16.232  10.620  1.00  0.00    -0.298 NA
ATOM     11  C   UNL     1      22.063  16.001   8.132  1.00  0.00    -0.026 C 
ATOM     12  C   UNL     1      22.224  15.470   9.584  1.00  0.00     0.091 C 
ATOM     13  C   UNL     1      22.804  15.242   7.101  1.00  0.00    -0.011 A 
ATOM     14  C   UNL     1      23.735  15.321  10.000  1.00  0.00     0.061 C 
ATOM     15  C   UNL     1      23.959  14.616   7.598  1.00  0.00     0.010 A 
ATOM     16  C   UNL     1      22.523  15.100   5.741  1.00  0.00     0.009 A 
ATOM     17  C   UNL     1      24.475  14.598   8.918  1.00  0.00    -0.020 A 
ATOM     18  C   UNL     1      24.798  13.879   6.780  1.00  0.00     0.046 A 
ATOM     19  C   UNL     1      23.375  14.348   4.919  1.00  0.00     0.003 A 
ATOM     20  C   UNL     1      25.631  13.852   8.888  1.00  0.00     0.087 A 
ATOM     21  N   UNL     1      25.816  13.424   7.590  1.00  0.00    -0.361 N 
ATOM     22  C   UNL     1      24.531  13.723   5.417  1.00  0.00     0.027 A 
ATOM     23  C   UNL     1      20.139  15.679  10.822  1.00  0.00     0.106 C 
ATOM     24  H   UNL     1      26.590  12.857   7.274  1.00  0.00     0.166 HD
ENDBRANCH   5   7
ENDBRANCH   1   3
BRANCH   1  25
ATOM     25  C   UNL     1      19.926  20.617  11.566  1.00  0.00     0.180 C 
BRANCH  25  26
ATOM     26  O   UNL     1      19.074  21.417  12.375  1.00  0.00    -0.394 OA
ATOM     27  H   UNL     1      19.645  22.017  12.888  1.00  0.00     0.210 HD
ENDBRANCH  25  26
ENDBRANCH   1  25
TORSDOF 4
ENDMDL
MODEL 11
REMARK VINA RESULT:    -7.346      2.529      7.165
REMARK INTER + INTRA:          -9.258
REMARK INTER:                  -8.849
REMARK INTRA:                  -0.409
REMARK UNBOUND:                -0.408
REMARK SMILES C[C@@H](CO)NC(=O)[C@@H]1C=C2c3cccc4[nH]cc(c34)C[C@H]2N(C)C1
REMARK SMILES IDX 2 1 1 2 5 3 7 4 6 5 8 7 24 8 9 9 22 10 10 11 21 12 11 13
REMARK SMILES IDX 20 14 19 15 12 16 18 17 15 18 13 19 17 20 16 21 14 22 23 23
REMARK SMILES IDX 3 25 4 26
REMARK H PARENT 5 6 16 24 4 27
ROOT
ATOM      1  C   UNL     1      23.608  14.704   7.830  1.00  0.00     0.104 C 
ATOM      2  C   UNL     1      24.623  14.883   8.959  1.00  0.00     0.033 C 
ENDROOT
BRANCH   1   3
ATOM      3  N   UNL     1      23.296  16.004   7.238  1.00  0.00    -0.351 N 
ATOM      4  O   UNL     1      21.993  17.745   6.761  1.00  0.00    -0.274 OA
ATOM      5  C   UNL     1      22.274  16.857   7.566  1.00  0.00     0.228 C 
ATOM      6  H   UNL     1      23.668  16.201   6.315  1.00  0.00     0.163 HD
BRANCH   5   7
ATOM      7  C   UNL     1      21.564  16.685   8.916  1.00  0.00     0.115 C 
ATOM      8  C   UNL     1      20.035  16.614   8.697  1.00  0.00     0.102 C 
ATOM      9  C   UNL     1      21.913  17.835   9.832  1.00  0.00    -0.007 C 
ATOM     10  N   UNL     1      19.237  16.655   9.939  1.00  0.00    -0.298 NA
ATOM     11  C   UNL     1      20.986  18.401  10.626  1.00  0.00    -0.026 C 
ATOM     12  C   UNL     1      19.520  17.893  10.711  1.00  0.00     0.091 C 
ATOM     13  C   UNL     1      21.269  19.633  11.397  1.00  0.00    -0.011 A 
ATOM     14  C   UNL     1      18.479  19.015  10.345  1.00  0.00     0.061 C 
ATOM     15  C   UNL     1      20.144  20.461  11.548  1.00  0.00     0.010 A 
ATOM     16  C   UNL     1      22.476  20.069  11.947  1.00  0.00     0.009 A 
ATOM     17  C   UNL     1      18.816  20.265  11.095  1.00  0.00    -0.020 A 
ATOM     18  C   UNL     1      20.215  21.670  12.217  1.00  0.00     0.046 A 
ATOM     19  C   UNL     1      22.539  21.294  12.628  1.00  0.00     0.003 A 
ATOM     20  C   UNL     1      18.090  21.365  11.490  1.00  0.00     0.087 A 
ATOM     21  N   UNL     1      18.947  22.208  12.167  1.00  0.00    -0.361 N 
ATOM     22  C   UNL     1      21.412  22.122  12.778  1.00  0.00     0.027 A 
ATOM     23  C   UNL     1      19.445  15.460  10.758  1.00  0.00     0.106 C 
ATOM     24  H   UNL     1      18.684  23.097  12.570  1.00  0.00     0.166 HD
ENDBRANCH   5   7
ENDBRANCH   1   3
BRANCH   1  25
ATOM     25  C   UNL     1      24.128  13.723   6.765  1.00  0.00     0.180 C 
BRANCH  25  26
ATOM     26  O   UNL     1      23.504  13.969   5.512  1.00  0.00    -0.394 OA
ATOM     27  H   UNL     1      24.175  13.817   4.822  1.00  0.00     0.210 HD
ENDBRANCH  25  26
ENDBRANCH   1  25
TORSDOF 4
ENDMDL
MODEL 12
REMARK VINA RESULT:    -7.340      1.965      3.447
REMARK INTER + INTRA:          -9.250
REMARK INTER:                  -8.852
REMARK INTRA:                  -0.398
REMARK UNBOUND:                -0.408
REMARK SMILES C[C@@H](CO)NC(=O)[C@@H]1C=C2c3cccc4[nH]cc(c34)C[C@H]2N(C)C1
REMARK SMILES IDX 2 1 1 2 5 3 7 4 6 5 8 7 24 8 9 9 22 10 10 11 21 12 11 13
REMARK SMILES IDX 20 14 19 15 12 16 18 17 15 18 13 19 17 20 16 21 14 22 23 23
REMARK SMILES IDX 3 25 4 26
REMARK H PARENT 5 6 16 24 4 27
ROOT
ATOM      1  C   UNL     1      19.427  21.084  10.660  1.00  0.00     0.104 C 
ATOM      2  C   UNL     1      20.125  21.396  11.983  1.00  0.00     0.033 C 
ENDROOT
BRANCH   1   3
ATOM      3  N   UNL     1      19.049  19.673  10.623  1.00  0.00    -0.351 N 
ATOM      4  O   UNL     1      18.862  17.656   9.699  1.00  0.00    -0.274 OA
ATOM      5  C   UNL     1      19.515  18.696   9.783  1.00  0.00     0.228 C 
ATOM      6  H   UNL     1      18.165  19.413  11.046  1.00  0.00     0.163 HD
BRANCH   5   7
ATOM      7  C   UNL     1      20.828  18.931   9.023  1.00  0.00     0.115 C 
ATOM      8  C   UNL     1      20.526  19.233   7.536  1.00  0.00     0.102 C 
ATOM      9  C   UNL     1      21.718  17.716   9.144  1.00  0.00    -0.007 C 
ATOM     10  N   UNL     1      21.718  19.274   6.666  1.00  0.00    -0.298 NA
ATOM     11  C   UNL     1      22.437  17.270   8.097  1.00  0.00    -0.026 C 
ATOM     12  C   UNL     1      22.458  17.986   6.718  1.00  0.00     0.091 C 
ATOM     13  C   UNL     1      23.175  15.988   8.150  1.00  0.00    -0.011 A 
ATOM     14  C   UNL     1      21.990  17.041   5.549  1.00  0.00     0.061 C 
ATOM     15  C   UNL     1      23.231  15.330   6.910  1.00  0.00     0.010 A 
ATOM     16  C   UNL     1      23.776  15.363   9.244  1.00  0.00     0.009 A 
ATOM     17  C   UNL     1      22.711  15.733   5.655  1.00  0.00    -0.020 A 
ATOM     18  C   UNL     1      23.857  14.105   6.763  1.00  0.00     0.046 A 
ATOM     19  C   UNL     1      24.413  14.123   9.086  1.00  0.00     0.003 A 
ATOM     20  C   UNL     1      23.022  14.741   4.753  1.00  0.00     0.087 A 
ATOM     21  N   UNL     1      23.715  13.762   5.435  1.00  0.00    -0.361 N 
ATOM     22  C   UNL     1      24.467  13.466   7.845  1.00  0.00     0.027 A 
ATOM     23  C   UNL     1      22.592  20.401   6.995  1.00  0.00     0.106 C 
ATOM     24  H   UNL     1      24.068  12.910   5.022  1.00  0.00     0.166 HD
ENDBRANCH   5   7
ENDBRANCH   1   3
BRANCH   1  25
ATOM     25  C   UNL     1      18.201  21.991  10.451  1.00  0.00     0.180 C 
BRANCH  25  26
ATOM     26  O   UNL     1      17.364  21.971  11.600  1.00  0.00    -0.394 OA
ATOM     27  H   UNL     1      16.491  21.646  11.314  1.00  0.00     0.210 HD
ENDBRANCH  25  26
ENDBRANCH   1  25
TORSDOF 4
ENDMDL
MODEL 13
REMARK VINA RESULT:    -7.303      4.152      7.051
REMARK INTER + INTRA:          -9.206
REMARK INTER:                  -8.735
REMARK INTRA:                  -0.471
REMARK UNBOUND:                -0.408
REMARK SMILES C[C@@H](CO)NC(=O)[C@@H]1C=C2c3cccc4[nH]cc(c34)C[C@H]2N(C)C1
REMARK SMILES IDX 2 1 1 2 5 3 7 4 6 5 8 7 24 8 9 9 22 10 10 11 21 12 11 13
REMARK SMILES IDX 20 14 19 15 12 16 18 17 15 18 13 19 17 20 16 21 14 22 23 23
REMARK SMILES IDX 3 25 4 26
REMARK H PARENT 5 6 16 24 4 27
ROOT
ATOM      1  C   UNL     1      17.629  23.863  17.612  1.00  0.00     0.104 C 
ATOM      2  C   UNL     1      17.566  23.232  19.003  1.00  0.00     0.033 C 
ENDROOT
BRANCH   1   3
ATOM      3  N   UNL     1      16.669  23.204  16.728  1.00  0.00    -0.351 N 
ATOM      4  O   UNL     1      15.809  22.619  14.760  1.00  0.00    -0.274 OA
ATOM      5  C   UNL     1      16.823  22.883  15.405  1.00  0.00     0.228 C 
ATOM      6  H   UNL     1      15.691  23.228  16.997  1.00  0.00     0.163 HD
BRANCH   5   7
ATOM      7  C   UNL     1      18.237  22.836  14.810  1.00  0.00     0.115 C 
ATOM      8  C   UNL     1      18.317  23.762  13.574  1.00  0.00     0.102 C 
ATOM      9  C   UNL     1      18.589  21.417  14.429  1.00  0.00    -0.007 C 
ATOM     10  N   UNL     1      19.568  23.642  12.798  1.00  0.00    -0.298 NA
ATOM     11  C   UNL     1      19.258  21.144  13.293  1.00  0.00    -0.026 C 
ATOM     12  C   UNL     1      19.766  22.247  12.324  1.00  0.00     0.091 C 
ATOM     13  C   UNL     1      19.457  19.755  12.822  1.00  0.00    -0.011 A 
ATOM     14  C   UNL     1      19.185  22.077  10.871  1.00  0.00     0.061 C 
ATOM     15  C   UNL     1      19.473  19.642  11.422  1.00  0.00     0.010 A 
ATOM     16  C   UNL     1      19.599  18.584  13.569  1.00  0.00     0.009 A 
ATOM     17  C   UNL     1      19.350  20.654  10.437  1.00  0.00    -0.020 A 
ATOM     18  C   UNL     1      19.624  18.420  10.791  1.00  0.00     0.046 A 
ATOM     19  C   UNL     1      19.756  17.349  12.923  1.00  0.00     0.003 A 
ATOM     20  C   UNL     1      19.423  20.034   9.211  1.00  0.00     0.087 A 
ATOM     21  N   UNL     1      19.587  18.683   9.438  1.00  0.00    -0.361 N 
ATOM     22  C   UNL     1      19.770  17.238  11.521  1.00  0.00     0.027 A 
ATOM     23  C   UNL     1      20.725  24.113  13.559  1.00  0.00     0.106 C 
ATOM     24  H   UNL     1      19.667  17.981   8.715  1.00  0.00     0.166 HD
ENDBRANCH   5   7
ENDBRANCH   1   3
BRANCH   1  25
ATOM     25  C   UNL     1      17.370  25.379  17.677  1.00  0.00     0.180 C 
BRANCH  25  26
ATOM     26  O   UNL     1      17.752  26.004  16.459  1.00  0.00    -0.394 OA
ATOM     27  H   UNL     1      16.980  25.972  15.866  1.00  0.00     0.210 HD
ENDBRANCH  25  26
ENDBRANCH   1  25
TORSDOF 4
ENDMDL
MODEL 14
REMARK VINA RESULT:    -7.202      4.186      6.557
REMARK INTER + INTRA:          -9.084
REMARK INTER:                  -8.679
REMARK INTRA:                  -0.405
REMARK UNBOUND:                -0.408
REMARK SMILES C[C@@H](CO)NC(=O)[C@@H]1C=C2c3cccc4[nH]cc(c34)C[C@H]2N(C)C1
REMARK SMILES IDX 2 1 1 2 5 3 7 4 6 5 8 7 24 8 9 9 22 10 10 11 21 12 11 13
REMARK SMILES IDX 20 14 19 15 12 16 18 17 15 18 13 19 17 20 16 21 14 22 23 23
REMARK SMILES IDX 3 25 4 26
REMARK H PARENT 5 6 16 24 4 27
ROOT
ATOM      1  C   UNL     1      22.693  20.658  17.962  1.00  0.00     0.104 C 
ATOM      2  C   UNL     1      22.011  21.208  19.214  1.00  0.00     0.033 C 
ENDROOT
BRANCH   1   3
ATOM      3  N   UNL     1      22.749  21.697  16.935  1.00  0.00    -0.351 N 
ATOM      4  O   UNL     1      22.965  22.475  14.860  1.00  0.00    -0.274 OA
ATOM      5  C   UNL     1      22.580  21.555  15.582  1.00  0.00     0.228 C 
ATOM      6  H   UNL     1      23.231  22.559  17.165  1.00  0.00     0.163 HD
BRANCH   5   7
ATOM      7  C   UNL     1      21.899  20.289  15.045  1.00  0.00     0.115 C 
ATOM      8  C   UNL     1      22.934  19.414  14.299  1.00  0.00     0.102 C 
ATOM      9  C   UNL     1      20.765  20.666  14.121  1.00  0.00    -0.007 C 
ATOM     10  N   UNL     1      22.354  18.272  13.564  1.00  0.00    -0.298 NA
ATOM     11  C   UNL     1      20.532  19.983  12.985  1.00  0.00    -0.026 C 
ATOM     12  C   UNL     1      21.358  18.736  12.563  1.00  0.00     0.091 C 
ATOM     13  C   UNL     1      19.539  20.444  11.989  1.00  0.00    -0.011 A 
ATOM     14  C   UNL     1      22.043  18.923  11.158  1.00  0.00     0.061 C 
ATOM     15  C   UNL     1      19.896  20.134  10.666  1.00  0.00     0.010 A 
ATOM     16  C   UNL     1      18.349  21.147  12.192  1.00  0.00     0.009 A 
ATOM     17  C   UNL     1      21.033  19.440  10.182  1.00  0.00    -0.020 A 
ATOM     18  C   UNL     1      19.107  20.504   9.592  1.00  0.00     0.046 A 
ATOM     19  C   UNL     1      17.552  21.515  11.099  1.00  0.00     0.003 A 
ATOM     20  C   UNL     1      20.926  19.400   8.811  1.00  0.00     0.087 A 
ATOM     21  N   UNL     1      19.757  20.048   8.466  1.00  0.00    -0.361 N 
ATOM     22  C   UNL     1      17.912  21.204   9.776  1.00  0.00     0.027 A 
ATOM     23  C   UNL     1      21.772  17.282  14.471  1.00  0.00     0.106 C 
ATOM     24  H   UNL     1      19.423  20.173   7.521  1.00  0.00     0.166 HD
ENDBRANCH   5   7
ENDBRANCH   1   3
BRANCH   1  25
ATOM     25  C   UNL     1      24.101  20.125  18.285  1.00  0.00     0.180 C 
BRANCH  25  26
ATOM     26  O   UNL     1      24.473  20.470  19.613  1.00  0.00    -0.394 OA
ATOM     27  H   UNL     1      23.931  21.236  19.873  1.00  0.00     0.210 HD
ENDBRANCH  25  26
ENDBRANCH   1  25
TORSDOF 4
ENDMDL
MODEL 15
REMARK VINA RESULT:    -7.191      5.757      7.436
REMARK INTER + INTRA:          -9.070
REMARK INTER:                  -8.592
REMARK INTRA:                  -0.478
REMARK UNBOUND:                -0.408
REMARK SMILES C[C@@H](CO)NC(=O)[C@@H]1C=C2c3cccc4[nH]cc(c34)C[C@H]2N(C)C1
REMARK SMILES IDX 2 1 1 2 5 3 7 4 6 5 8 7 24 8 9 9 22 10 10 11 21 12 11 13
REMARK SMILES IDX 20 14 19 15 12 16 18 17 15 18 13 19 17 20 16 21 14 22 23 23
REMARK SMILES IDX 3 25 4 26
REMARK H PARENT 5 6 16 24 4 27
ROOT
ATOM      1  C   UNL     1      17.751  23.013  10.893  1.00  0.00     0.104 C 
ATOM      2  C   UNL     1      17.636  21.751  10.039  1.00  0.00     0.033 C 
ENDROOT
BRANCH   1   3
ATOM      3  N   UNL     1      19.126  23.508  10.858  1.00  0.00    -0.351 N 
ATOM      4  O   UNL     1      20.950  24.463  11.706  1.00  0.00    -0.274 OA
ATOM      5  C   UNL     1      19.956  23.769  11.918  1.00  0.00     0.228 C 
ATOM      6  H   UNL     1      19.433  23.982  10.016  1.00  0.00     0.163 HD
BRANCH   5   7
ATOM      7  C   UNL     1      19.626  23.164  13.289  1.00  0.00     0.115 C 
ATOM      8  C   UNL     1      20.213  24.054  14.409  1.00  0.00     0.102 C 
ATOM      9  C   UNL     1      20.184  21.763  13.381  1.00  0.00    -0.007 C 
ATOM     10  N   UNL     1      20.136  23.465  15.762  1.00  0.00    -0.298 NA
ATOM     11  C   UNL     1      20.758  21.312  14.512  1.00  0.00    -0.026 C 
ATOM     12  C   UNL     1      20.843  22.159  15.813  1.00  0.00     0.091 C 
ATOM     13  C   UNL     1      21.460  20.011  14.563  1.00  0.00    -0.011 A 
ATOM     14  C   UNL     1      22.328  22.360  16.296  1.00  0.00     0.061 C 
ATOM     15  C   UNL     1      22.550  20.004  15.450  1.00  0.00     0.010 A 
ATOM     16  C   UNL     1      21.199  18.841  13.846  1.00  0.00     0.009 A 
ATOM     17  C   UNL     1      23.032  21.039  16.289  1.00  0.00    -0.020 A 
ATOM     18  C   UNL     1      23.346  18.885  15.618  1.00  0.00     0.046 A 
ATOM     19  C   UNL     1      22.008  17.709  14.025  1.00  0.00     0.003 A 
ATOM     20  C   UNL     1      24.125  20.538  16.958  1.00  0.00     0.087 A 
ATOM     21  N   UNL     1      24.305  19.235  16.543  1.00  0.00    -0.361 N 
ATOM     22  C   UNL     1      23.099  17.704  14.912  1.00  0.00     0.027 A 
ATOM     23  C   UNL     1      18.753  23.338  16.220  1.00  0.00     0.106 C 
ATOM     24  H   UNL     1      25.039  18.621  16.869  1.00  0.00     0.166 HD
ENDBRANCH   5   7
ENDBRANCH   1   3
BRANCH   1  25
ATOM     25  C   UNL     1      16.762  24.095  10.421  1.00  0.00     0.180 C 
BRANCH  25  26
ATOM     26  O   UNL     1      17.437  25.094   9.669  1.00  0.00    -0.394 OA
ATOM     27  H   UNL     1      17.834  25.714  10.306  1.00  0.00     0.210 HD
ENDBRANCH  25  26
ENDBRANCH   1  25
TORSDOF 4
ENDMDL
MODEL 16
REMARK VINA RESULT:    -7.088      4.182      6.667
REMARK INTER + INTRA:          -8.947
REMARK INTER:                  -8.559
REMARK INTRA:                  -0.387
REMARK UNBOUND:                -0.408
REMARK SMILES C[C@@H](CO)NC(=O)[C@@H]1C=C2c3cccc4[nH]cc(c34)C[C@H]2N(C)C1
REMARK SMILES IDX 2 1 1 2 5 3 7 4 6 5 8 7 24 8 9 9 22 10 10 11 21 12 11 13
REMARK SMILES IDX 20 14 19 15 12 16 18 17 15 18 13 19 17 20 16 21 14 22 23 23
REMARK SMILES IDX 3 25 4 26
REMARK H PARENT 5 6 16 24 4 27
ROOT
ATOM      1  C   UNL     1      17.988  24.242  16.241  1.00  0.00     0.104 C 
ATOM      2  C   UNL     1      19.008  23.350  16.947  1.00  0.00     0.033 C 
ENDROOT
BRANCH   1   3
ATOM      3  N   UNL     1      16.828  23.446  15.844  1.00  0.00    -0.351 N 
ATOM      4  O   UNL     1      15.347  22.613  14.404  1.00  0.00    -0.274 OA
ATOM      5  C   UNL     1      16.502  22.995  14.591  1.00  0.00     0.228 C 
ATOM      6  H   UNL     1      16.024  23.446  16.463  1.00  0.00     0.163 HD
BRANCH   5   7
ATOM      7  C   UNL     1      17.588  22.960  13.507  1.00  0.00     0.115 C 
ATOM      8  C   UNL     1      16.932  22.836  12.112  1.00  0.00     0.102 C 
ATOM      9  C   UNL     1      18.525  21.800  13.754  1.00  0.00    -0.007 C 
ATOM     10  N   UNL     1      17.882  22.587  11.009  1.00  0.00    -0.298 NA
ATOM     11  C   UNL     1      18.991  21.050  12.738  1.00  0.00    -0.026 C 
ATOM     12  C   UNL     1      18.658  21.342  11.249  1.00  0.00     0.091 C 
ATOM     13  C   UNL     1      19.767  19.813  12.977  1.00  0.00    -0.011 A 
ATOM     14  C   UNL     1      17.962  20.120  10.543  1.00  0.00     0.061 C 
ATOM     15  C   UNL     1      19.551  18.827  12.000  1.00  0.00     0.010 A 
ATOM     16  C   UNL     1      20.632  19.506  14.029  1.00  0.00     0.009 A 
ATOM     17  C   UNL     1      18.734  18.873  10.843  1.00  0.00    -0.020 A 
ATOM     18  C   UNL     1      20.168  17.591  12.063  1.00  0.00     0.046 A 
ATOM     19  C   UNL     1      21.258  18.251  14.084  1.00  0.00     0.003 A 
ATOM     20  C   UNL     1      18.859  17.655  10.214  1.00  0.00     0.087 A 
ATOM     21  N   UNL     1      19.728  16.888  10.962  1.00  0.00    -0.361 N 
ATOM     22  C   UNL     1      21.040  17.266  13.106  1.00  0.00     0.027 A 
ATOM     23  C   UNL     1      18.767  23.730  10.786  1.00  0.00     0.106 C 
ATOM     24  H   UNL     1      20.004  15.942  10.737  1.00  0.00     0.166 HD
ENDBRANCH   5   7
ENDBRANCH   1   3
BRANCH   1  25
ATOM     25  C   UNL     1      17.567  25.422  17.136  1.00  0.00     0.180 C 
BRANCH  25  26
ATOM     26  O   UNL     1      17.616  26.643  16.409  1.00  0.00    -0.394 OA
ATOM     27  H   UNL     1      17.268  27.339  16.994  1.00  0.00     0.210 HD
ENDBRANCH  25  26
ENDBRANCH   1  25
TORSDOF 4
ENDMDL
MODEL 17
REMARK VINA RESULT:    -7.078      3.515      7.685
REMARK INTER + INTRA:          -8.935
REMARK INTER:                  -8.860
REMARK INTRA:                  -0.075
REMARK UNBOUND:                -0.408
REMARK SMILES C[C@@H](CO)NC(=O)[C@@H]1C=C2c3cccc4[nH]cc(c34)C[C@H]2N(C)C1
REMARK SMILES IDX 2 1 1 2 5 3 7 4 6 5 8 7 24 8 9 9 22 10 10 11 21 12 11 13
REMARK SMILES IDX 20 14 19 15 12 16 18 17 15 18 13 19 17 20 16 21 14 22 23 23
REMARK SMILES IDX 3 25 4 26
REMARK H PARENT 5 6 16 24 4 27
ROOT
ATOM      1  C   UNL     1      19.642  17.509  10.429  1.00  0.00     0.104 C 
ATOM      2  C   UNL     1      21.000  16.912  10.797  1.00  0.00     0.033 C 
ENDROOT
BRANCH   1   3
ATOM      3  N   UNL     1      19.828  18.605   9.479  1.00  0.00    -0.351 N 
ATOM      4  O   UNL     1      19.300  20.525   8.484  1.00  0.00    -0.274 OA
ATOM      5  C   UNL     1      19.274  19.858   9.518  1.00  0.00     0.228 C 
ATOM      6  H   UNL     1      20.157  18.369   8.549  1.00  0.00     0.163 HD
BRANCH   5   7
ATOM      7  C   UNL     1      18.687  20.372  10.840  1.00  0.00     0.115 C 
ATOM      8  C   UNL     1      18.333  21.872  10.708  1.00  0.00     0.102 C 
ATOM      9  C   UNL     1      19.679  20.161  11.960  1.00  0.00    -0.007 C 
ATOM     10  N   UNL     1      17.952  22.525  11.976  1.00  0.00    -0.298 NA
ATOM     11  C   UNL     1      19.861  21.091  12.916  1.00  0.00    -0.026 C 
ATOM     12  C   UNL     1      19.042  22.411  12.980  1.00  0.00     0.091 C 
ATOM     13  C   UNL     1      20.946  20.976  13.916  1.00  0.00    -0.011 A 
ATOM     14  C   UNL     1      19.964  23.686  12.932  1.00  0.00     0.061 C 
ATOM     15  C   UNL     1      21.465  22.219  14.314  1.00  0.00     0.010 A 
ATOM     16  C   UNL     1      21.513  19.828  14.471  1.00  0.00     0.009 A 
ATOM     17  C   UNL     1      21.082  23.524  13.913  1.00  0.00    -0.020 A 
ATOM     18  C   UNL     1      22.502  22.318  15.225  1.00  0.00     0.046 A 
ATOM     19  C   UNL     1      22.561  19.935  15.397  1.00  0.00     0.003 A 
ATOM     20  C   UNL     1      21.898  24.406  14.583  1.00  0.00     0.087 A 
ATOM     21  N   UNL     1      22.753  23.665  15.373  1.00  0.00    -0.361 N 
ATOM     22  C   UNL     1      23.080  21.180  15.794  1.00  0.00     0.027 A 
ATOM     23  C   UNL     1      16.692  21.998  12.501  1.00  0.00     0.106 C 
ATOM     24  H   UNL     1      23.466  24.053  15.974  1.00  0.00     0.166 HD
ENDBRANCH   5   7
ENDBRANCH   1   3
BRANCH   1  25
ATOM     25  C   UNL     1      18.699  16.435   9.855  1.00  0.00     0.180 C 
BRANCH  25  26
ATOM     26  O   UNL     1      18.860  15.206  10.552  1.00  0.00    -0.394 OA
ATOM     27  H   UNL     1      18.794  14.492   9.892  1.00  0.00     0.210 HD
ENDBRANCH  25  26
ENDBRANCH   1  25
TORSDOF 4
ENDMDL
MODEL 18
REMARK VINA RESULT:    -7.026      4.275     10.101
REMARK INTER + INTRA:          -8.873
REMARK INTER:                  -8.477
REMARK INTRA:                  -0.395
REMARK UNBOUND:                -0.408
REMARK SMILES C[C@@H](CO)NC(=O)[C@@H]1C=C2c3cccc4[nH]cc(c34)C[C@H]2N(C)C1
REMARK SMILES IDX 2 1 1 2 5 3 7 4 6 5 8 7 24 8 9 9 22 10 10 11 21 12 11 13
REMARK SMILES IDX 20 14 19 15 12 16 18 17 15 18 13 19 17 20 16 21 14 22 23 23
REMARK SMILES IDX 3 25 4 26
REMARK H PARENT 5 6 16 24 4 27
ROOT
ATOM      1  C   UNL     1      19.461  20.315  10.429  1.00  0.00     0.104 C 
ATOM      2  C   UNL     1      18.103  20.883  10.018  1.00  0.00     0.033 C 
ENDROOT
BRANCH   1   3
ATOM      3  N   UNL     1      19.315  19.530  11.653  1.00  0.00    -0.351 N 
ATOM      4  O   UNL     1      19.663  19.056  13.801  1.00  0.00    -0.274 OA
ATOM      5  C   UNL     1      19.541  19.931  12.945  1.00  0.00     0.228 C 
ATOM      6  H   UNL     1      19.327  18.519  11.567  1.00  0.00     0.163 HD
BRANCH   5   7
ATOM      7  C   UNL     1      19.595  21.433  13.259  1.00  0.00     0.115 C 
ATOM      8  C   UNL     1      20.940  21.776  13.942  1.00  0.00     0.102 C 
ATOM      9  C   UNL     1      18.437  21.815  14.152  1.00  0.00    -0.007 C 
ATOM     10  N   UNL     1      21.021  23.151  14.475  1.00  0.00    -0.298 NA
ATOM     11  C   UNL     1      18.595  22.685  15.166  1.00  0.00    -0.026 C 
ATOM     12  C   UNL     1      19.941  23.401  15.465  1.00  0.00     0.091 C 
ATOM     13  C   UNL     1      17.518  22.935  16.150  1.00  0.00    -0.011 A 
ATOM     14  C   UNL     1      20.459  23.112  16.923  1.00  0.00     0.061 C 
ATOM     15  C   UNL     1      18.002  23.221  17.438  1.00  0.00     0.010 A 
ATOM     16  C   UNL     1      16.134  22.897  15.970  1.00  0.00     0.009 A 
ATOM     17  C   UNL     1      19.340  23.320  17.894  1.00  0.00    -0.020 A 
ATOM     18  C   UNL     1      17.147  23.460  18.500  1.00  0.00     0.046 A 
ATOM     19  C   UNL     1      15.275  23.145  17.050  1.00  0.00     0.003 A 
ATOM     20  C   UNL     1      19.286  23.614  19.237  1.00  0.00     0.087 A 
ATOM     21  N   UNL     1      17.955  23.695  19.593  1.00  0.00    -0.361 N 
ATOM     22  C   UNL     1      15.760  23.430  18.339  1.00  0.00     0.027 A 
ATOM     23  C   UNL     1      21.003  24.150  13.406  1.00  0.00     0.106 C 
ATOM     24  H   UNL     1      17.616  23.897  20.523  1.00  0.00     0.166 HD
ENDBRANCH   5   7
ENDBRANCH   1   3
BRANCH   1  25
ATOM     25  C   UNL     1      20.073  19.467   9.299  1.00  0.00     0.180 C 
BRANCH  25  26
ATOM     26  O   UNL     1      19.680  19.969   8.029  1.00  0.00    -0.394 OA
ATOM     27  H   UNL     1      19.148  20.769   8.188  1.00  0.00     0.210 HD
ENDBRANCH  25  26
ENDBRANCH   1  25
TORSDOF 4
ENDMDL
MODEL 19
REMARK VINA RESULT:    -6.919      3.929      7.065
REMARK INTER + INTRA:          -8.743
REMARK INTER:                  -8.738
REMARK INTRA:                  -0.005
REMARK UNBOUND:                -0.408
REMARK SMILES C[C@@H](CO)NC(=O)[C@@H]1C=C2c3cccc4[nH]cc(c34)C[C@H]2N(C)C1
REMARK SMILES IDX 2 1 1 2 5 3 7 4 6 5 8 7 24 8 9 9 22 10 10 11 21 12 11 13
REMARK SMILES IDX 20 14 19 15 12 16 18 17 15 18 13 19 17 20 16 21 14 22 23 23
REMARK SMILES IDX 3 25 4 26
REMARK H PARENT 5 6 16 24 4 27
ROOT
ATOM      1  C   UNL     1      21.978  20.725  13.461  1.00  0.00     0.104 C 
ATOM      2  C   UNL     1      22.762  21.340  12.301  1.00  0.00     0.033 C 
ENDROOT
BRANCH   1   3
ATOM      3  N   UNL     1      22.622  19.483  13.885  1.00  0.00    -0.351 N 
ATOM      4  O   UNL     1      22.667  17.371  14.590  1.00  0.00    -0.274 OA
ATOM      5  C   UNL     1      22.083  18.223  13.921  1.00  0.00     0.228 C 
ATOM      6  H   UNL     1      23.440  19.558  14.480  1.00  0.00     0.163 HD
BRANCH   5   7
ATOM      7  C   UNL     1      20.814  17.933  13.108  1.00  0.00     0.115 C 
ATOM      8  C   UNL     1      21.128  18.024  11.596  1.00  0.00     0.102 C 
ATOM      9  C   UNL     1      19.728  18.914  13.481  1.00  0.00    -0.007 C 
ATOM     10  N   UNL     1      19.940  17.966  10.720  1.00  0.00    -0.298 NA
ATOM     11  C   UNL     1      18.916  19.446  12.549  1.00  0.00    -0.026 C 
ATOM     12  C   UNL     1      18.988  19.060  11.045  1.00  0.00     0.091 C 
ATOM     13  C   UNL     1      17.966  20.534  12.873  1.00  0.00    -0.011 A 
ATOM     14  C   UNL     1      19.253  20.307  10.122  1.00  0.00     0.061 C 
ATOM     15  C   UNL     1      17.766  21.429  11.808  1.00  0.00     0.010 A 
ATOM     16  C   UNL     1      17.292  20.786  14.069  1.00  0.00     0.009 A 
ATOM     17  C   UNL     1      18.318  21.412  10.503  1.00  0.00    -0.020 A 
ATOM     18  C   UNL     1      16.931  22.526  11.927  1.00  0.00     0.046 A 
ATOM     19  C   UNL     1      16.443  21.898  14.180  1.00  0.00     0.003 A 
ATOM     20  C   UNL     1      17.815  22.507   9.839  1.00  0.00     0.087 A 
ATOM     21  N   UNL     1      16.978  23.173  10.710  1.00  0.00    -0.361 N 
ATOM     22  C   UNL     1      16.244  22.793  13.114  1.00  0.00     0.027 A 
ATOM     23  C   UNL     1      19.286  16.659  10.778  1.00  0.00     0.106 C 
ATOM     24  H   UNL     1      16.471  24.019  10.491  1.00  0.00     0.166 HD
ENDBRANCH   5   7
ENDBRANCH   1   3
BRANCH   1  25
ATOM     25  C   UNL     1      21.856  21.713  14.635  1.00  0.00     0.180 C 
BRANCH  25  26
ATOM     26  O   UNL     1      20.502  22.100  14.823  1.00  0.00    -0.394 OA
ATOM     27  H   UNL     1      20.421  23.021  14.516  1.00  0.00     0.210 HD
ENDBRANCH  25  26
ENDBRANCH   1  25
TORSDOF 4
ENDMDL
MODEL 20
REMARK VINA RESULT:    -6.906      4.353      6.352
REMARK INTER + INTRA:          -8.727
REMARK INTER:                  -8.904
REMARK INTRA:                   0.177
REMARK UNBOUND:                -0.408
REMARK SMILES C[C@@H](CO)NC(=O)[C@@H]1C=C2c3cccc4[nH]cc(c34)C[C@H]2N(C)C1
REMARK SMILES IDX 2 1 1 2 5 3 7 4 6 5 8 7 24 8 9 9 22 10 10 11 21 12 11 13
REMARK SMILES IDX 20 14 19 15 12 16 18 17 15 18 13 19 17 20 16 21 14 22 23 23
REMARK SMILES IDX 3 25 4 26
REMARK H PARENT 5 6 16 24 4 27
ROOT
ATOM      1  C   UNL     1      17.490  22.164  13.506  1.00  0.00     0.104 C 
ATOM      2  C   UNL     1      17.018  20.738  13.784  1.00  0.00     0.033 C 
ENDROOT
BRANCH   1   3
ATOM      3  N   UNL     1      16.814  22.684  12.319  1.00  0.00    -0.351 N 
ATOM      4  O   UNL     1      16.714  23.558  10.274  1.00  0.00    -0.274 OA
ATOM      5  C   UNL     1      17.322  22.826  11.053  1.00  0.00     0.228 C 
ATOM      6  H   UNL     1      15.994  23.264  12.461  1.00  0.00     0.163 HD
BRANCH   5   7
ATOM      7  C   UNL     1      18.589  22.050  10.668  1.00  0.00     0.115 C 
ATOM      8  C   UNL     1      18.249  20.553  10.478  1.00  0.00     0.102 C 
ATOM      9  C   UNL     1      19.643  22.220  11.738  1.00  0.00    -0.007 C 
ATOM     10  N   UNL     1      19.424  19.676  10.307  1.00  0.00    -0.298 NA
ATOM     11  C   UNL     1      20.419  21.191  12.124  1.00  0.00    -0.026 C 
ATOM     12  C   UNL     1      20.339  19.781  11.474  1.00  0.00     0.091 C 
ATOM     13  C   UNL     1      21.332  21.296  13.284  1.00  0.00    -0.011 A 
ATOM     14  C   UNL     1      20.012  18.658  12.527  1.00  0.00     0.061 C 
ATOM     15  C   UNL     1      21.482  20.086  13.982  1.00  0.00     0.010 A 
ATOM     16  C   UNL     1      22.014  22.414  13.768  1.00  0.00     0.009 A 
ATOM     17  C   UNL     1      20.911  18.817  13.714  1.00  0.00    -0.020 A 
ATOM     18  C   UNL     1      22.276  19.990  15.111  1.00  0.00     0.046 A 
ATOM     19  C   UNL     1      22.821  22.308  14.911  1.00  0.00     0.003 A 
ATOM     20  C   UNL     1      21.361  17.959  14.690  1.00  0.00     0.087 A 
ATOM     21  N   UNL     1      22.185  18.680  15.530  1.00  0.00    -0.361 N 
ATOM     22  C   UNL     1      22.969  21.096  15.608  1.00  0.00     0.027 A 
ATOM     23  C   UNL     1      20.129  19.949   9.055  1.00  0.00     0.106 C 
ATOM     24  H   UNL     1      22.656  18.303  16.341  1.00  0.00     0.166 HD
ENDBRANCH   5   7
ENDBRANCH   1   3
BRANCH   1  25
ATOM     25  C   UNL     1      17.249  23.077  14.723  1.00  0.00     0.180 C 
BRANCH  25  26
ATOM     26  O   UNL     1      17.703  24.397  14.455  1.00  0.00    -0.394 OA
ATOM     27  H   UNL     1      17.952  24.429  13.514  1.00  0.00     0.210 HD
ENDBRANCH  25  26
ENDBRANCH   1  25
TORSDOF 4
ENDMDL
