MODEL 1
REMARK VINA RESULT:    -6.801      0.000      0.000
REMARK INTER + INTRA:          -8.677
REMARK INTER:                  -8.192
REMARK INTRA:                  -0.485
REMARK UNBOUND:                -0.485
REMARK SMILES C[C@@H](CO)NC(=O)[C@@H]1C=C2c3cccc4[nH]cc(c34)C[C@H]2N(C)C1
REMARK SMILES IDX 2 1 1 2 5 3 7 4 6 5 8 7 24 8 9 9 22 10 10 11 21 12 11 13
REMARK SMILES IDX 20 14 19 15 12 16 18 17 15 18 13 19 17 20 16 21 14 22 23 23
REMARK SMILES IDX 3 25 4 26
REMARK H PARENT 5 6 16 24 4 27
ROOT
ATOM      1  C   UNL     1      98.347 126.077 118.786  1.00  0.00     0.104 C 
ATOM      2  C   UNL     1      97.574 126.479 120.042  1.00  0.00     0.033 C 
ENDROOT
BRANCH   1   3
ATOM      3  N   UNL     1      97.411 125.634 117.754  1.00  0.00    -0.351 N 
ATOM      4  O   UNL     1      96.592 124.215 116.246  1.00  0.00    -0.274 OA
ATOM      5  C   UNL     1      97.177 124.355 117.319  1.00  0.00     0.228 C 
ATOM      6  H   UNL     1      97.097 126.323 117.079  1.00  0.00     0.163 HD
BRANCH   5   7
ATOM      7  C   UNL     1      97.622 123.177 118.198  1.00  0.00     0.115 C 
ATOM      8  C   UNL     1      97.802 121.912 117.326  1.00  0.00     0.102 C 
ATOM      9  C   UNL     1      96.600 122.929 119.283  1.00  0.00    -0.007 C 
ATOM     10  N   UNL     1      98.030 120.669 118.090  1.00  0.00    -0.298 NA
ATOM     11  C   UNL     1      96.254 121.679 119.643  1.00  0.00    -0.026 C 
ATOM     12  C   UNL     1      96.905 120.410 119.026  1.00  0.00     0.091 C 
ATOM     13  C   UNL     1      95.135 121.421 120.577  1.00  0.00    -0.011 A 
ATOM     14  C   UNL     1      95.842 119.463 118.354  1.00  0.00     0.061 C 
ATOM     15  C   UNL     1      94.449 120.226 120.301  1.00  0.00     0.010 A 
ATOM     16  C   UNL     1      94.678 122.201 121.640  1.00  0.00     0.009 A 
ATOM     17  C   UNL     1      94.697 119.259 119.295  1.00  0.00    -0.020 A 
ATOM     18  C   UNL     1      93.358 119.823 121.050  1.00  0.00     0.046 A 
ATOM     19  C   UNL     1      93.573 121.785 122.397  1.00  0.00     0.003 A 
ATOM     20  C   UNL     1      93.745 118.276 119.439  1.00  0.00     0.087 A 
ATOM     21  N   UNL     1      92.940 118.629 120.503  1.00  0.00    -0.361 N 
ATOM     22  C   UNL     1      92.887 120.589 122.120  1.00  0.00     0.027 A 
ATOM     23  C   UNL     1      99.311 120.692 118.795  1.00  0.00     0.106 C 
ATOM     24  H   UNL     1      92.153 118.090 120.836  1.00  0.00     0.166 HD
ENDBRANCH   5   7
ENDBRANCH   1   3
BRANCH   1  25
ATOM     25  C   UNL     1      99.222 127.236 118.278  1.00  0.00     0.180 C 
BRANCH  25  26
ATOM     26  O   UNL     1      98.658 127.812 117.107  1.00  0.00    -0.394 OA
ATOM     27  H   UNL     1      97.836 127.326 116.916  1.00  0.00     0.210 HD
ENDBRANCH  25  26
ENDBRANCH   1  25
TORSDOF 4
ENDMDL
MODEL 2
REMARK VINA RESULT:    -6.442      5.086      8.615
REMARK INTER + INTRA:          -8.245
REMARK INTER:                  -8.700
REMARK INTRA:                   0.455
REMARK UNBOUND:                -0.485
REMARK SMILES C[C@@H](CO)NC(=O)[C@@H]1C=C2c3cccc4[nH]cc(c34)C[C@H]2N(C)C1
REMARK SMILES IDX 2 1 1 2 5 3 7 4 6 5 8 7 24 8 9 9 22 10 10 11 21 12 11 13
REMARK SMILES IDX 20 14 19 15 12 16 18 17 15 18 13 19 17 20 16 21 14 22 23 23
REMARK SMILES IDX 3 25 4 26
REMARK H PARENT 5 6 16 24 4 27
ROOT
ATOM      1  C   UNL     1      93.235 131.698 123.013  1.00  0.00     0.104 C 
ATOM      2  C   UNL     1      93.071 132.179 124.455  1.00  0.00     0.033 C 
ENDROOT
BRANCH   1   3
ATOM      3  N   UNL     1      92.665 130.360 122.873  1.00  0.00    -0.351 N 
ATOM      4  O   UNL     1      92.624 128.246 122.174  1.00  0.00    -0.274 OA
ATOM      5  C   UNL     1      93.312 129.197 122.542  1.00  0.00     0.228 C 
ATOM      6  H   UNL     1      91.665 130.289 122.719  1.00  0.00     0.163 HD
BRANCH   5   7
ATOM      7  C   UNL     1      94.840 129.131 122.676  1.00  0.00     0.115 C 
ATOM      8  C   UNL     1      95.475 130.397 122.054  1.00  0.00     0.102 C 
ATOM      9  C   UNL     1      95.364 127.889 121.994  1.00  0.00    -0.007 C 
ATOM     10  N   UNL     1      96.947 130.351 121.941  1.00  0.00    -0.298 NA
ATOM     11  C   UNL     1      96.498 127.915 121.270  1.00  0.00    -0.026 C 
ATOM     12  C   UNL     1      97.379 129.187 121.123  1.00  0.00     0.091 C 
ATOM     13  C   UNL     1      96.929 126.755 120.458  1.00  0.00    -0.011 A 
ATOM     14  C   UNL     1      97.563 129.614 119.620  1.00  0.00     0.061 C 
ATOM     15  C   UNL     1      97.611 127.124 119.286  1.00  0.00     0.010 A 
ATOM     16  C   UNL     1      96.727 125.394 120.691  1.00  0.00     0.009 A 
ATOM     17  C   UNL     1      97.947 128.415 118.810  1.00  0.00    -0.020 A 
ATOM     18  C   UNL     1      98.072 126.180 118.385  1.00  0.00     0.046 A 
ATOM     19  C   UNL     1      97.201 124.443 119.775  1.00  0.00     0.003 A 
ATOM     20  C   UNL     1      98.608 128.244 117.615  1.00  0.00     0.087 A 
ATOM     21  N   UNL     1      98.676 126.889 117.368  1.00  0.00    -0.361 N 
ATOM     22  C   UNL     1      97.882 124.813 118.602  1.00  0.00     0.027 A 
ATOM     23  C   UNL     1      97.592 130.346 123.253  1.00  0.00     0.106 C 
ATOM     24  H   UNL     1      99.107 126.470 116.555  1.00  0.00     0.166 HD
ENDBRANCH   5   7
ENDBRANCH   1   3
BRANCH   1  25
ATOM     25  C   UNL     1      92.587 132.681 122.022  1.00  0.00     0.180 C 
BRANCH  25  26
ATOM     26  O   UNL     1      91.201 132.400 121.873  1.00  0.00    -0.394 OA
ATOM     27  H   UNL     1      91.073 131.463 122.106  1.00  0.00     0.210 HD
ENDBRANCH  25  26
ENDBRANCH   1  25
TORSDOF 4
ENDMDL
MODEL 3
REMARK VINA RESULT:    -6.437      3.524      8.189
REMARK INTER + INTRA:          -8.239
REMARK INTER:                  -7.758
REMARK INTRA:                  -0.481
REMARK UNBOUND:                -0.485
REMARK SMILES C[C@@H](CO)NC(=O)[C@@H]1C=C2c3cccc4[nH]cc(c34)C[C@H]2N(C)C1
REMARK SMILES IDX 2 1 1 2 5 3 7 4 6 5 8 7 24 8 9 9 22 10 10 11 21 12 11 13
REMARK SMILES IDX 20 14 19 15 12 16 18 17 15 18 13 19 17 20 16 21 14 22 23 23
REMARK SMILES IDX 3 25 4 26
REMARK H PARENT 5 6 16 24 4 27
ROOT
ATOM      1  C   UNL     1      96.267 121.062 117.391  1.00  0.00     0.104 C 
ATOM      2  C   UNL     1      95.728 122.131 118.341  1.00  0.00     0.033 C 
ENDROOT
BRANCH   1   3
ATOM      3  N   UNL     1      97.658 120.761 117.726  1.00  0.00    -0.351 N 
ATOM      4  O   UNL     1      99.811 120.407 117.281  1.00  0.00    -0.274 OA
ATOM      5  C   UNL     1      98.778 121.003 116.974  1.00  0.00     0.228 C 
ATOM      6  H   UNL     1      97.828 120.057 118.437  1.00  0.00     0.163 HD
BRANCH   5   7
ATOM      7  C   UNL     1      98.698 122.015 115.823  1.00  0.00     0.115 C 
ATOM      8  C   UNL     1      99.827 121.737 114.802  1.00  0.00     0.102 C 
ATOM      9  C   UNL     1      98.811 123.421 116.365  1.00  0.00    -0.007 C 
ATOM     10  N   UNL     1      99.976 122.772 113.759  1.00  0.00    -0.298 NA
ATOM     11  C   UNL     1      99.529 124.361 115.723  1.00  0.00    -0.026 C 
ATOM     12  C   UNL     1     100.241 124.103 114.366  1.00  0.00     0.091 C 
ATOM     13  C   UNL     1      99.790 125.687 116.326  1.00  0.00    -0.011 A 
ATOM     14  C   UNL     1     101.790 124.368 114.446  1.00  0.00     0.061 C 
ATOM     15  C   UNL     1     101.037 126.224 115.964  1.00  0.00     0.010 A 
ATOM     16  C   UNL     1      98.992 126.430 117.199  1.00  0.00     0.009 A 
ATOM     17  C   UNL     1     102.031 125.689 115.107  1.00  0.00    -0.020 A 
ATOM     18  C   UNL     1     101.472 127.445 116.447  1.00  0.00     0.046 A 
ATOM     19  C   UNL     1      99.439 127.669 117.681  1.00  0.00     0.003 A 
ATOM     20  C   UNL     1     103.069 126.592 115.082  1.00  0.00     0.087 A 
ATOM     21  N   UNL     1     102.720 127.649 115.897  1.00  0.00    -0.361 N 
ATOM     22  C   UNL     1     100.687 128.205 117.318  1.00  0.00     0.027 A 
ATOM     23  C   UNL     1      98.817 122.816 112.869  1.00  0.00     0.106 C 
ATOM     24  H   UNL     1     103.297 128.461 116.069  1.00  0.00     0.166 HD
ENDBRANCH   5   7
ENDBRANCH   1   3
BRANCH   1  25
ATOM     25  C   UNL     1      95.401 119.790 117.437  1.00  0.00     0.180 C 
BRANCH  25  26
ATOM     26  O   UNL     1      95.721 118.928 116.352  1.00  0.00    -0.394 OA
ATOM     27  H   UNL     1      95.185 118.122 116.459  1.00  0.00     0.210 HD
ENDBRANCH  25  26
ENDBRANCH   1  25
TORSDOF 4
ENDMDL
MODEL 4
REMARK VINA RESULT:    -6.100      4.852      8.497
REMARK INTER + INTRA:          -7.833
REMARK INTER:                  -8.025
REMARK INTRA:                   0.192
REMARK UNBOUND:                -0.485
REMARK SMILES C[C@@H](CO)NC(=O)[C@@H]1C=C2c3cccc4[nH]cc(c34)C[C@H]2N(C)C1
REMARK SMILES IDX 2 1 1 2 5 3 7 4 6 5 8 7 24 8 9 9 22 10 10 11 21 12 11 13
REMARK SMILES IDX 20 14 19 15 12 16 18 17 15 18 13 19 17 20 16 21 14 22 23 23
REMARK SMILES IDX 3 25 4 26
REMARK H PARENT 5 6 16 24 4 27
ROOT
ATOM      1  C   UNL     1      92.566 126.062 123.643  1.00  0.00     0.104 C 
ATOM      2  C   UNL     1      93.095 124.984 122.696  1.00  0.00     0.033 C 
ENDROOT
BRANCH   1   3
ATOM      3  N   UNL     1      92.155 127.234 122.872  1.00  0.00    -0.351 N 
ATOM      4  O   UNL     1      92.242 129.368 122.242  1.00  0.00    -0.274 OA
ATOM      5  C   UNL     1      92.864 128.385 122.644  1.00  0.00     0.228 C 
ATOM      6  H   UNL     1      91.162 127.369 122.716  1.00  0.00     0.163 HD
BRANCH   5   7
ATOM      7  C   UNL     1      94.382 128.380 122.868  1.00  0.00     0.115 C 
ATOM      8  C   UNL     1      94.969 129.766 122.509  1.00  0.00     0.102 C 
ATOM      9  C   UNL     1      95.024 127.302 122.025  1.00  0.00    -0.007 C 
ATOM     10  N   UNL     1      96.445 129.819 122.488  1.00  0.00    -0.298 NA
ATOM     11  C   UNL     1      96.193 127.512 121.393  1.00  0.00    -0.026 C 
ATOM     12  C   UNL     1      96.997 128.836 121.519  1.00  0.00     0.091 C 
ATOM     13  C   UNL     1      96.744 126.533 120.430  1.00  0.00    -0.011 A 
ATOM     14  C   UNL     1      97.239 129.522 120.124  1.00  0.00     0.061 C 
ATOM     15  C   UNL     1      97.466 127.131 119.384  1.00  0.00     0.010 A 
ATOM     16  C   UNL     1      96.617 125.143 120.419  1.00  0.00     0.009 A 
ATOM     17  C   UNL     1      97.745 128.501 119.153  1.00  0.00    -0.020 A 
ATOM     18  C   UNL     1      98.038 126.381 118.371  1.00  0.00     0.046 A 
ATOM     19  C   UNL     1      97.203 124.389 119.391  1.00  0.00     0.003 A 
ATOM     20  C   UNL     1      98.482 128.572 117.994  1.00  0.00     0.087 A 
ATOM     21  N   UNL     1      98.652 127.284 117.529  1.00  0.00    -0.361 N 
ATOM     22  C   UNL     1      97.924 124.989 118.345  1.00  0.00     0.027 A 
ATOM     23  C   UNL     1      97.014 129.626 123.822  1.00  0.00     0.106 C 
ATOM     24  H   UNL     1      99.154 127.034 116.689  1.00  0.00     0.166 HD
ENDBRANCH   5   7
ENDBRANCH   1   3
BRANCH   1  25
ATOM     25  C   UNL     1      91.403 125.528 124.498  1.00  0.00     0.180 C 
BRANCH  25  26
ATOM     26  O   UNL     1      90.650 124.565 123.773  1.00  0.00    -0.394 OA
ATOM     27  H   UNL     1      91.072 124.468 122.901  1.00  0.00     0.210 HD
ENDBRANCH  25  26
ENDBRANCH   1  25
TORSDOF 4
ENDMDL
MODEL 5
REMARK VINA RESULT:    -5.965      4.867      7.840
REMARK INTER + INTRA:          -7.670
REMARK INTER:                  -7.337
REMARK INTRA:                  -0.333
REMARK UNBOUND:                -0.485
REMARK SMILES C[C@@H](CO)NC(=O)[C@@H]1C=C2c3cccc4[nH]cc(c34)C[C@H]2N(C)C1
REMARK SMILES IDX 2 1 1 2 5 3 7 4 6 5 8 7 24 8 9 9 22 10 10 11 21 12 11 13
REMARK SMILES IDX 20 14 19 15 12 16 18 17 15 18 13 19 17 20 16 21 14 22 23 23
REMARK SMILES IDX 3 25 4 26
REMARK H PARENT 5 6 16 24 4 27
ROOT
ATOM      1  C   UNL     1      98.323 126.298 119.905  1.00  0.00     0.104 C 
ATOM      2  C   UNL     1      97.569 124.970 119.962  1.00  0.00     0.033 C 
ENDROOT
BRANCH   1   3
ATOM      3  N   UNL     1      97.799 127.116 118.813  1.00  0.00    -0.351 N 
ATOM      4  O   UNL     1      97.939 128.570 117.133  1.00  0.00    -0.274 OA
ATOM      5  C   UNL     1      98.491 127.672 117.769  1.00  0.00     0.228 C 
ATOM      6  H   UNL     1      96.904 127.572 118.956  1.00  0.00     0.163 HD
BRANCH   5   7
ATOM      7  C   UNL     1      99.886 127.132 117.428  1.00  0.00     0.115 C 
ATOM      8  C   UNL     1     100.552 128.035 116.363  1.00  0.00     0.102 C 
ATOM      9  C   UNL     1      99.780 125.712 116.923  1.00  0.00    -0.007 C 
ATOM     10  N   UNL     1     101.812 127.500 115.808  1.00  0.00    -0.298 NA
ATOM     11  C   UNL     1     100.531 125.278 115.895  1.00  0.00    -0.026 C 
ATOM     12  C   UNL     1     101.594 126.166 115.189  1.00  0.00     0.091 C 
ATOM     13  C   UNL     1     100.316 123.949 115.280  1.00  0.00    -0.011 A 
ATOM     14  C   UNL     1     101.314 126.319 113.647  1.00  0.00     0.061 C 
ATOM     15  C   UNL     1     100.587 123.926 113.902  1.00  0.00     0.010 A 
ATOM     16  C   UNL     1      99.868 122.767 115.873  1.00  0.00     0.009 A 
ATOM     17  C   UNL     1     101.047 124.968 113.059  1.00  0.00    -0.020 A 
ATOM     18  C   UNL     1     100.421 122.779 113.145  1.00  0.00     0.046 A 
ATOM     19  C   UNL     1      99.706 121.607 115.101  1.00  0.00     0.003 A 
ATOM     20  C   UNL     1     101.151 124.444 111.791  1.00  0.00     0.087 A 
ATOM     21  N   UNL     1     100.769 123.120 111.856  1.00  0.00    -0.361 N 
ATOM     22  C   UNL     1      99.977 121.586 113.721  1.00  0.00     0.027 A 
ATOM     23  C   UNL     1     102.871 127.450 116.815  1.00  0.00     0.106 C 
ATOM     24  H   UNL     1     100.745 122.487 111.069  1.00  0.00     0.166 HD
ENDBRANCH   5   7
ENDBRANCH   1   3
BRANCH   1  25
ATOM     25  C   UNL     1      98.233 127.046 121.248  1.00  0.00     0.180 C 
BRANCH  25  26
ATOM     26  O   UNL     1      96.881 127.365 121.552  1.00  0.00    -0.394 OA
ATOM     27  H   UNL     1      96.529 127.868 120.796  1.00  0.00     0.210 HD
ENDBRANCH  25  26
ENDBRANCH   1  25
TORSDOF 4
ENDMDL
MODEL 6
REMARK VINA RESULT:    -5.923      2.800      4.560
REMARK INTER + INTRA:          -7.620
REMARK INTER:                  -7.165
REMARK INTRA:                  -0.455
REMARK UNBOUND:                -0.485
REMARK SMILES C[C@@H](CO)NC(=O)[C@@H]1C=C2c3cccc4[nH]cc(c34)C[C@H]2N(C)C1
REMARK SMILES IDX 2 1 1 2 5 3 7 4 6 5 8 7 24 8 9 9 22 10 10 11 21 12 11 13
REMARK SMILES IDX 20 14 19 15 12 16 18 17 15 18 13 19 17 20 16 21 14 22 23 23
REMARK SMILES IDX 3 25 4 26
REMARK H PARENT 5 6 16 24 4 27
ROOT
ATOM      1  C   UNL     1      98.318 129.252 122.082  1.00  0.00     0.104 C 
ATOM      2  C   UNL     1      98.938 128.718 123.373  1.00  0.00     0.033 C 
ENDROOT
BRANCH   1   3
ATOM      3  N   UNL     1      96.966 128.716 121.927  1.00  0.00    -0.351 N 
ATOM      4  O   UNL     1      95.285 127.769 120.815  1.00  0.00    -0.274 OA
ATOM      5  C   UNL     1      96.504 127.860 120.961  1.00  0.00     0.228 C 
ATOM      6  H   UNL     1      96.208 129.215 122.380  1.00  0.00     0.163 HD
BRANCH   5   7
ATOM      7  C   UNL     1      97.514 127.045 120.143  1.00  0.00     0.115 C 
ATOM      8  C   UNL     1      97.213 127.199 118.634  1.00  0.00     0.102 C 
ATOM      9  C   UNL     1      97.450 125.590 120.547  1.00  0.00    -0.007 C 
ATOM     10  N   UNL     1      97.991 126.299 117.759  1.00  0.00    -0.298 NA
ATOM     11  C   UNL     1      97.532 124.606 119.632  1.00  0.00    -0.026 C 
ATOM     12  C   UNL     1      97.754 124.876 118.117  1.00  0.00     0.091 C 
ATOM     13  C   UNL     1      97.299 123.189 119.990  1.00  0.00    -0.011 A 
ATOM     14  C   UNL     1      96.601 124.274 117.230  1.00  0.00     0.061 C 
ATOM     15  C   UNL     1      96.711 122.447 118.952  1.00  0.00     0.010 A 
ATOM     16  C   UNL     1      97.556 122.532 121.194  1.00  0.00     0.009 A 
ATOM     17  C   UNL     1      96.347 122.859 117.646  1.00  0.00    -0.020 A 
ATOM     18  C   UNL     1      96.392 121.109 119.104  1.00  0.00     0.046 A 
ATOM     19  C   UNL     1      97.235 121.174 121.339  1.00  0.00     0.003 A 
ATOM     20  C   UNL     1      95.804 121.764 117.015  1.00  0.00     0.087 A 
ATOM     21  N   UNL     1      95.836 120.712 117.907  1.00  0.00    -0.361 N 
ATOM     22  C   UNL     1      96.645 120.432 120.300  1.00  0.00     0.027 A 
ATOM     23  C   UNL     1      99.418 126.621 117.780  1.00  0.00     0.106 C 
ATOM     24  H   UNL     1      95.497 119.779 117.714  1.00  0.00     0.166 HD
ENDBRANCH   5   7
ENDBRANCH   1   3
BRANCH   1  25
ATOM     25  C   UNL     1      98.306 130.791 122.066  1.00  0.00     0.180 C 
BRANCH  25  26
ATOM     26  O   UNL     1      98.211 131.276 120.733  1.00  0.00    -0.394 OA
ATOM     27  H   UNL     1      98.785 130.715 120.182  1.00  0.00     0.210 HD
ENDBRANCH  25  26
ENDBRANCH   1  25
TORSDOF 4
ENDMDL
MODEL 7
REMARK VINA RESULT:    -5.812      1.725      2.504
REMARK INTER + INTRA:          -7.487
REMARK INTER:                  -7.639
REMARK INTRA:                   0.152
REMARK UNBOUND:                -0.485
REMARK SMILES C[C@@H](CO)NC(=O)[C@@H]1C=C2c3cccc4[nH]cc(c34)C[C@H]2N(C)C1
REMARK SMILES IDX 2 1 1 2 5 3 7 4 6 5 8 7 24 8 9 9 22 10 10 11 21 12 11 13
REMARK SMILES IDX 20 14 19 15 12 16 18 17 15 18 13 19 17 20 16 21 14 22 23 23
REMARK SMILES IDX 3 25 4 26
REMARK H PARENT 5 6 16 24 4 27
ROOT
ATOM      1  C   UNL     1      99.359 123.189 115.089  1.00  0.00     0.104 C 
ATOM      2  C   UNL     1     100.699 123.917 115.191  1.00  0.00     0.033 C 
ENDROOT
BRANCH   1   3
ATOM      3  N   UNL     1      98.289 124.054 115.584  1.00  0.00    -0.351 N 
ATOM      4  O   UNL     1      96.436 124.522 116.725  1.00  0.00    -0.274 OA
ATOM      5  C   UNL     1      97.460 123.843 116.654  1.00  0.00     0.228 C 
ATOM      6  H   UNL     1      97.907 124.740 114.942  1.00  0.00     0.163 HD
BRANCH   5   7
ATOM      7  C   UNL     1      97.860 122.807 117.713  1.00  0.00     0.115 C 
ATOM      8  C   UNL     1      98.028 121.419 117.051  1.00  0.00     0.102 C 
ATOM      9  C   UNL     1      96.811 122.749 118.800  1.00  0.00    -0.007 C 
ATOM     10  N   UNL     1      98.212 120.305 118.003  1.00  0.00    -0.298 NA
ATOM     11  C   UNL     1      96.429 121.578 119.341  1.00  0.00    -0.026 C 
ATOM     12  C   UNL     1      97.063 120.215 118.942  1.00  0.00     0.091 C 
ATOM     13  C   UNL     1      95.287 121.489 120.277  1.00  0.00    -0.011 A 
ATOM     14  C   UNL     1      95.993 119.197 118.400  1.00  0.00     0.061 C 
ATOM     15  C   UNL     1      94.580 120.279 120.174  1.00  0.00     0.010 A 
ATOM     16  C   UNL     1      94.827 122.433 121.197  1.00  0.00     0.009 A 
ATOM     17  C   UNL     1      94.824 119.164 119.335  1.00  0.00    -0.020 A 
ATOM     18  C   UNL     1      93.464 120.019 120.951  1.00  0.00     0.046 A 
ATOM     19  C   UNL     1      93.699 122.161 121.984  1.00  0.00     0.003 A 
ATOM     20  C   UNL     1      93.848 118.234 119.607  1.00  0.00     0.087 A 
ATOM     21  N   UNL     1      93.031 118.763 120.585  1.00  0.00    -0.361 N 
ATOM     22  C   UNL     1      92.991 120.950 121.879  1.00  0.00     0.027 A 
ATOM     23  C   UNL     1      99.480 120.411 118.725  1.00  0.00     0.106 C 
ATOM     24  H   UNL     1      92.225 118.298 120.979  1.00  0.00     0.166 HD
ENDBRANCH   5   7
ENDBRANCH   1   3
BRANCH   1  25
ATOM     25  C   UNL     1      99.081 122.737 113.644  1.00  0.00     0.180 C 
BRANCH  25  26
ATOM     26  O   UNL     1      98.475 123.786 112.901  1.00  0.00    -0.394 OA
ATOM     27  H   UNL     1      98.066 123.382 112.115  1.00  0.00     0.210 HD
ENDBRANCH  25  26
ENDBRANCH   1  25
TORSDOF 4
ENDMDL
MODEL 8
REMARK VINA RESULT:    -5.467      4.393      7.334
REMARK INTER + INTRA:          -7.071
REMARK INTER:                  -6.844
REMARK INTRA:                  -0.227
REMARK UNBOUND:                -0.485
REMARK SMILES C[C@@H](CO)NC(=O)[C@@H]1C=C2c3cccc4[nH]cc(c34)C[C@H]2N(C)C1
REMARK SMILES IDX 2 1 1 2 5 3 7 4 6 5 8 7 24 8 9 9 22 10 10 11 21 12 11 13
REMARK SMILES IDX 20 14 19 15 12 16 18 17 15 18 13 19 17 20 16 21 14 22 23 23
REMARK SMILES IDX 3 25 4 26
REMARK H PARENT 5 6 16 24 4 27
ROOT
ATOM      1  C   UNL     1     101.100 122.280 113.181  1.00  0.00     0.104 C 
ATOM      2  C   UNL     1     100.082 121.319 113.794  1.00  0.00     0.033 C 
ENDROOT
BRANCH   1   3
ATOM      3  N   UNL     1     102.162 122.555 114.148  1.00  0.00    -0.351 N 
ATOM      4  O   UNL     1     103.567 123.852 115.288  1.00  0.00    -0.274 OA
ATOM      5  C   UNL     1     102.464 123.748 114.752  1.00  0.00     0.228 C 
ATOM      6  H   UNL     1     102.941 121.907 114.186  1.00  0.00     0.163 HD
BRANCH   5   7
ATOM      7  C   UNL     1     101.414 124.868 114.757  1.00  0.00     0.115 C 
ATOM      8  C   UNL     1     102.008 126.140 115.406  1.00  0.00     0.102 C 
ATOM      9  C   UNL     1     100.184 124.417 115.509  1.00  0.00    -0.007 C 
ATOM     10  N   UNL     1     101.028 127.216 115.652  1.00  0.00    -0.298 NA
ATOM     11  C   UNL     1      99.523 125.252 116.332  1.00  0.00    -0.026 C 
ATOM     12  C   UNL     1      99.926 126.740 116.530  1.00  0.00     0.091 C 
ATOM     13  C   UNL     1      98.425 124.778 117.203  1.00  0.00    -0.011 A 
ATOM     14  C   UNL     1     100.243 127.076 118.034  1.00  0.00     0.061 C 
ATOM     15  C   UNL     1      98.349 125.470 118.424  1.00  0.00     0.010 A 
ATOM     16  C   UNL     1      97.507 123.749 116.982  1.00  0.00     0.009 A 
ATOM     17  C   UNL     1      99.146 126.540 118.901  1.00  0.00    -0.020 A 
ATOM     18  C   UNL     1      97.403 125.154 119.383  1.00  0.00     0.046 A 
ATOM     19  C   UNL     1      96.548 123.438 117.957  1.00  0.00     0.003 A 
ATOM     20  C   UNL     1      98.677 126.864 120.153  1.00  0.00     0.087 A 
ATOM     21  N   UNL     1      97.624 126.018 120.434  1.00  0.00    -0.361 N 
ATOM     22  C   UNL     1      96.474 124.131 119.178  1.00  0.00     0.027 A 
ATOM     23  C   UNL     1     100.508 127.773 114.403  1.00  0.00     0.106 C 
ATOM     24  H   UNL     1      97.088 126.026 121.291  1.00  0.00     0.166 HD
ENDBRANCH   5   7
ENDBRANCH   1   3
BRANCH   1  25
ATOM     25  C   UNL     1     101.679 121.716 111.871  1.00  0.00     0.180 C 
BRANCH  25  26
ATOM     26  O   UNL     1     101.349 120.340 111.731  1.00  0.00    -0.394 OA
ATOM     27  H   UNL     1     100.653 120.144 112.384  1.00  0.00     0.210 HD
ENDBRANCH  25  26
ENDBRANCH   1  25
TORSDOF 4
ENDMDL
MODEL 9
REMARK VINA RESULT:    -5.262      3.126      5.860
REMARK INTER + INTRA:          -6.824
REMARK INTER:                  -7.200
REMARK INTRA:                   0.376
REMARK UNBOUND:                -0.485
REMARK SMILES C[C@@H](CO)NC(=O)[C@@H]1C=C2c3cccc4[nH]cc(c34)C[C@H]2N(C)C1
REMARK SMILES IDX 2 1 1 2 5 3 7 4 6 5 8 7 24 8 9 9 22 10 10 11 21 12 11 13
REMARK SMILES IDX 20 14 19 15 12 16 18 17 15 18 13 19 17 20 16 21 14 22 23 23
REMARK SMILES IDX 3 25 4 26
REMARK H PARENT 5 6 16 24 4 27
ROOT
ATOM      1  C   UNL     1     101.288 125.623 115.016  1.00  0.00     0.104 C 
ATOM      2  C   UNL     1     101.906 124.228 115.116  1.00  0.00     0.033 C 
ENDROOT
BRANCH   1   3
ATOM      3  N   UNL     1     101.875 126.495 116.032  1.00  0.00    -0.351 N 
ATOM      4  O   UNL     1     101.940 128.269 117.375  1.00  0.00    -0.274 OA
ATOM      5  C   UNL     1     101.241 127.430 116.809  1.00  0.00     0.228 C 
ATOM      6  H   UNL     1     102.875 126.657 115.991  1.00  0.00     0.163 HD
BRANCH   5   7
ATOM      7  C   UNL     1      99.715 127.365 116.956  1.00  0.00     0.115 C 
ATOM      8  C   UNL     1      99.304 127.847 118.367  1.00  0.00     0.102 C 
ATOM      9  C   UNL     1      99.235 125.951 116.722  1.00  0.00    -0.007 C 
ATOM     10  N   UNL     1      97.880 127.635 118.696  1.00  0.00    -0.298 NA
ATOM     11  C   UNL     1      98.261 125.410 117.477  1.00  0.00    -0.026 C 
ATOM     12  C   UNL     1      97.521 126.197 118.595  1.00  0.00     0.091 C 
ATOM     13  C   UNL     1      97.901 123.978 117.373  1.00  0.00    -0.011 A 
ATOM     14  C   UNL     1      97.653 125.500 120.000  1.00  0.00     0.061 C 
ATOM     15  C   UNL     1      97.480 123.424 118.594  1.00  0.00     0.010 A 
ATOM     16  C   UNL     1      97.953 123.136 116.262  1.00  0.00     0.009 A 
ATOM     17  C   UNL     1      97.337 124.044 119.860  1.00  0.00    -0.020 A 
ATOM     18  C   UNL     1      97.125 122.092 118.705  1.00  0.00     0.046 A 
ATOM     19  C   UNL     1      97.588 121.787 116.381  1.00  0.00     0.003 A 
ATOM     20  C   UNL     1      96.899 123.076 120.735  1.00  0.00     0.087 A 
ATOM     21  N   UNL     1      96.776 121.899 120.025  1.00  0.00    -0.361 N 
ATOM     22  C   UNL     1      97.167 121.234 117.603  1.00  0.00     0.027 A 
ATOM     23  C   UNL     1      97.003 128.461 117.867  1.00  0.00     0.106 C 
ATOM     24  H   UNL     1      96.473 121.018 120.415  1.00  0.00     0.166 HD
ENDBRANCH   5   7
ENDBRANCH   1   3
BRANCH   1  25
ATOM     25  C   UNL     1     101.475 126.214 113.607  1.00  0.00     0.180 C 
BRANCH  25  26
ATOM     26  O   UNL     1     101.613 125.176 112.644  1.00  0.00    -0.394 OA
ATOM     27  H   UNL     1     102.559 124.949 112.602  1.00  0.00     0.210 HD
ENDBRANCH  25  26
ENDBRANCH   1  25
TORSDOF 4
ENDMDL
MODEL 10
REMARK VINA RESULT:    -5.160      4.080      8.429
REMARK INTER + INTRA:          -6.701
REMARK INTER:                  -6.198
REMARK INTRA:                  -0.503
REMARK UNBOUND:                -0.485
REMARK SMILES C[C@@H](CO)NC(=O)[C@@H]1C=C2c3cccc4[nH]cc(c34)C[C@H]2N(C)C1
REMARK SMILES IDX 2 1 1 2 5 3 7 4 6 5 8 7 24 8 9 9 22 10 10 11 21 12 11 13
REMARK SMILES IDX 20 14 19 15 12 16 18 17 15 18 13 19 17 20 16 21 14 22 23 23
REMARK SMILES IDX 3 25 4 26
REMARK H PARENT 5 6 16 24 4 27
ROOT
ATOM      1  C   UNL     1      96.437 123.614 118.626  1.00  0.00     0.104 C 
ATOM      2  C   UNL     1      95.571 122.423 119.034  1.00  0.00     0.033 C 
ENDROOT
BRANCH   1   3
ATOM      3  N   UNL     1      97.314 123.988 119.734  1.00  0.00    -0.351 N 
ATOM      4  O   UNL     1      98.685 125.335 120.858  1.00  0.00    -0.274 OA
ATOM      5  C   UNL     1      97.714 125.245 120.106  1.00  0.00     0.228 C 
ATOM      6  H   UNL     1      97.929 123.273 120.108  1.00  0.00     0.163 HD
BRANCH   5   7
ATOM      7  C   UNL     1      96.923 126.459 119.601  1.00  0.00     0.115 C 
ATOM      8  C   UNL     1      97.860 127.405 118.815  1.00  0.00     0.102 C 
ATOM      9  C   UNL     1      96.295 127.187 120.767  1.00  0.00    -0.007 C 
ATOM     10  N   UNL     1      97.257 128.705 118.456  1.00  0.00    -0.298 NA
ATOM     11  C   UNL     1      96.262 128.531 120.815  1.00  0.00    -0.026 C 
ATOM     12  C   UNL     1      96.805 129.432 119.670  1.00  0.00     0.091 C 
ATOM     13  C   UNL     1      95.809 129.256 122.023  1.00  0.00    -0.011 A 
ATOM     14  C   UNL     1      97.928 130.416 120.168  1.00  0.00     0.061 C 
ATOM     15  C   UNL     1      96.474 130.479 122.217  1.00  0.00     0.010 A 
ATOM     16  C   UNL     1      94.859 128.876 122.973  1.00  0.00     0.009 A 
ATOM     17  C   UNL     1      97.469 131.097 121.420  1.00  0.00    -0.020 A 
ATOM     18  C   UNL     1      96.205 131.289 123.306  1.00  0.00     0.046 A 
ATOM     19  C   UNL     1      94.589 129.705 124.072  1.00  0.00     0.003 A 
ATOM     20  C   UNL     1      97.802 132.280 122.037  1.00  0.00     0.087 A 
ATOM     21  N   UNL     1      97.032 132.385 123.177  1.00  0.00    -0.361 N 
ATOM     22  C   UNL     1      95.255 130.928 124.264  1.00  0.00     0.027 A 
ATOM     23  C   UNL     1      96.167 128.550 117.493  1.00  0.00     0.106 C 
ATOM     24  H   UNL     1      97.067 133.155 123.830  1.00  0.00     0.166 HD
ENDBRANCH   5   7
ENDBRANCH   1   3
BRANCH   1  25
ATOM     25  C   UNL     1      97.252 123.300 117.358  1.00  0.00     0.180 C 
BRANCH  25  26
ATOM     26  O   UNL     1      97.515 124.489 116.625  1.00  0.00    -0.394 OA
ATOM     27  H   UNL     1      96.703 125.026 116.650  1.00  0.00     0.210 HD
ENDBRANCH  25  26
ENDBRANCH   1  25
TORSDOF 4
ENDMDL
MODEL 11
REMARK VINA RESULT:    -5.079      4.012      5.825
REMARK INTER + INTRA:          -6.604
REMARK INTER:                  -6.215
REMARK INTRA:                  -0.389
REMARK UNBOUND:                -0.485
REMARK SMILES C[C@@H](CO)NC(=O)[C@@H]1C=C2c3cccc4[nH]cc(c34)C[C@H]2N(C)C1
REMARK SMILES IDX 2 1 1 2 5 3 7 4 6 5 8 7 24 8 9 9 22 10 10 11 21 12 11 13
REMARK SMILES IDX 20 14 19 15 12 16 18 17 15 18 13 19 17 20 16 21 14 22 23 23
REMARK SMILES IDX 3 25 4 26
REMARK H PARENT 5 6 16 24 4 27
ROOT
ATOM      1  C   UNL     1     100.569 127.448 116.951  1.00  0.00     0.104 C 
ATOM      2  C   UNL     1      99.346 127.813 117.793  1.00  0.00     0.033 C 
ENDROOT
BRANCH   1   3
ATOM      3  N   UNL     1     100.195 127.393 115.539  1.00  0.00    -0.351 N 
ATOM      4  O   UNL     1     100.421 126.767 113.414  1.00  0.00    -0.274 OA
ATOM      5  C   UNL     1     100.586 126.475 114.598  1.00  0.00     0.228 C 
ATOM      6  H   UNL     1      99.850 128.245 115.111  1.00  0.00     0.163 HD
BRANCH   5   7
ATOM      7  C   UNL     1     101.172 125.135 115.064  1.00  0.00     0.115 C 
ATOM      8  C   UNL     1     101.796 124.390 113.861  1.00  0.00     0.102 C 
ATOM      9  C   UNL     1     100.090 124.294 115.702  1.00  0.00    -0.007 C 
ATOM     10  N   UNL     1     102.207 123.001 114.148  1.00  0.00    -0.298 NA
ATOM     11  C   UNL     1     100.017 122.968 115.485  1.00  0.00    -0.026 C 
ATOM     12  C   UNL     1     101.052 122.193 114.623  1.00  0.00     0.091 C 
ATOM     13  C   UNL     1      98.869 122.164 115.960  1.00  0.00    -0.011 A 
ATOM     14  C   UNL     1     100.379 121.441 113.415  1.00  0.00     0.061 C 
ATOM     15  C   UNL     1      98.556 121.090 115.110  1.00  0.00     0.010 A 
ATOM     16  C   UNL     1      98.072 122.350 117.091  1.00  0.00     0.009 A 
ATOM     17  C   UNL     1      99.190 120.678 113.911  1.00  0.00    -0.020 A 
ATOM     18  C   UNL     1      97.498 120.238 115.372  1.00  0.00     0.046 A 
ATOM     19  C   UNL     1      97.004 121.479 117.353  1.00  0.00     0.003 A 
ATOM     20  C   UNL     1      98.505 119.578 113.451  1.00  0.00     0.087 A 
ATOM     21  N   UNL     1      97.483 119.321 114.342  1.00  0.00    -0.361 N 
ATOM     22  C   UNL     1      96.692 120.406 116.501  1.00  0.00     0.027 A 
ATOM     23  C   UNL     1     103.317 122.949 115.098  1.00  0.00     0.106 C 
ATOM     24  H   UNL     1      96.815 118.569 114.255  1.00  0.00     0.166 HD
ENDBRANCH   5   7
ENDBRANCH   1   3
BRANCH   1  25
ATOM     25  C   UNL     1     101.718 128.447 117.180  1.00  0.00     0.180 C 
BRANCH  25  26
ATOM     26  O   UNL     1     102.949 127.905 116.719  1.00  0.00    -0.394 OA
ATOM     27  H   UNL     1     102.738 127.096 116.220  1.00  0.00     0.210 HD
ENDBRANCH  25  26
ENDBRANCH   1  25
TORSDOF 4
ENDMDL
MODEL 12
REMARK VINA RESULT:    -5.078      2.640      6.812
REMARK INTER + INTRA:          -6.602
REMARK INTER:                  -6.812
REMARK INTRA:                   0.210
REMARK UNBOUND:                -0.485
REMARK SMILES C[C@@H](CO)NC(=O)[C@@H]1C=C2c3cccc4[nH]cc(c34)C[C@H]2N(C)C1
REMARK SMILES IDX 2 1 1 2 5 3 7 4 6 5 8 7 24 8 9 9 22 10 10 11 21 12 11 13
REMARK SMILES IDX 20 14 19 15 12 16 18 17 15 18 13 19 17 20 16 21 14 22 23 23
REMARK SMILES IDX 3 25 4 26
REMARK H PARENT 5 6 16 24 4 27
ROOT
ATOM      1  C   UNL     1      94.294 120.449 122.008  1.00  0.00     0.104 C 
ATOM      2  C   UNL     1      94.111 119.537 120.795  1.00  0.00     0.033 C 
ENDROOT
BRANCH   1   3
ATOM      3  N   UNL     1      95.714 120.748 122.189  1.00  0.00    -0.351 N 
ATOM      4  O   UNL     1      97.786 121.191 121.507  1.00  0.00    -0.274 OA
ATOM      5  C   UNL     1      96.581 121.302 121.283  1.00  0.00     0.228 C 
ATOM      6  H   UNL     1      96.205 120.261 122.930  1.00  0.00     0.163 HD
BRANCH   5   7
ATOM      7  C   UNL     1      96.013 122.049 120.069  1.00  0.00     0.115 C 
ATOM      8  C   UNL     1      96.320 121.258 118.776  1.00  0.00     0.102 C 
ATOM      9  C   UNL     1      96.610 123.436 119.993  1.00  0.00    -0.007 C 
ATOM     10  N   UNL     1      96.003 121.979 117.527  1.00  0.00    -0.298 NA
ATOM     11  C   UNL     1      96.967 123.978 118.814  1.00  0.00    -0.026 C 
ATOM     12  C   UNL     1      96.749 123.263 117.452  1.00  0.00     0.091 C 
ATOM     13  C   UNL     1      97.708 125.257 118.739  1.00  0.00    -0.011 A 
ATOM     14  C   UNL     1      98.094 123.067 116.659  1.00  0.00     0.061 C 
ATOM     15  C   UNL     1      98.597 125.319 117.653  1.00  0.00     0.010 A 
ATOM     16  C   UNL     1      97.654 126.357 119.598  1.00  0.00     0.009 A 
ATOM     17  C   UNL     1      98.850 124.359 116.643  1.00  0.00    -0.020 A 
ATOM     18  C   UNL     1      99.397 126.426 117.429  1.00  0.00     0.046 A 
ATOM     19  C   UNL     1      98.464 127.477 119.361  1.00  0.00     0.003 A 
ATOM     20  C   UNL     1      99.810 124.891 115.813  1.00  0.00     0.087 A 
ATOM     21  N   UNL     1     100.133 126.141 116.299  1.00  0.00    -0.361 N 
ATOM     22  C   UNL     1      99.354 127.537 118.275  1.00  0.00     0.027 A 
ATOM     23  C   UNL     1      94.564 122.192 117.374  1.00  0.00     0.106 C 
ATOM     24  H   UNL     1     100.816 126.762 115.888  1.00  0.00     0.166 HD
ENDBRANCH   5   7
ENDBRANCH   1   3
BRANCH   1  25
ATOM     25  C   UNL     1      93.471 121.741 121.861  1.00  0.00     0.180 C 
BRANCH  25  26
ATOM     26  O   UNL     1      92.681 121.699 120.680  1.00  0.00    -0.394 OA
ATOM     27  H   UNL     1      93.293 121.587 119.930  1.00  0.00     0.210 HD
ENDBRANCH  25  26
ENDBRANCH   1  25
TORSDOF 4
ENDMDL
MODEL 13
REMARK VINA RESULT:    -5.033      3.097      6.010
REMARK INTER + INTRA:          -6.548
REMARK INTER:                  -6.649
REMARK INTRA:                   0.101
REMARK UNBOUND:                -0.485
REMARK SMILES C[C@@H](CO)NC(=O)[C@@H]1C=C2c3cccc4[nH]cc(c34)C[C@H]2N(C)C1
REMARK SMILES IDX 2 1 1 2 5 3 7 4 6 5 8 7 24 8 9 9 22 10 10 11 21 12 11 13
REMARK SMILES IDX 20 14 19 15 12 16 18 17 15 18 13 19 17 20 16 21 14 22 23 23
REMARK SMILES IDX 3 25 4 26
REMARK H PARENT 5 6 16 24 4 27
ROOT
ATOM      1  C   UNL     1      98.459 127.363 117.813  1.00  0.00     0.104 C 
ATOM      2  C   UNL     1      99.779 127.797 117.176  1.00  0.00     0.033 C 
ENDROOT
BRANCH   1   3
ATOM      3  N   UNL     1      98.726 126.646 119.058  1.00  0.00    -0.351 N 
ATOM      4  O   UNL     1      98.230 125.289 120.753  1.00  0.00    -0.274 OA
ATOM      5  C   UNL     1      98.065 125.556 119.563  1.00  0.00     0.228 C 
ATOM      6  H   UNL     1      99.248 127.134 119.778  1.00  0.00     0.163 HD
BRANCH   5   7
ATOM      7  C   UNL     1      97.190 124.715 118.622  1.00  0.00     0.115 C 
ATOM      8  C   UNL     1      97.024 123.289 119.198  1.00  0.00     0.102 C 
ATOM      9  C   UNL     1      97.817 124.660 117.248  1.00  0.00    -0.007 C 
ATOM     10  N   UNL     1      96.374 122.331 118.281  1.00  0.00    -0.298 NA
ATOM     11  C   UNL     1      97.817 123.524 116.526  1.00  0.00    -0.026 C 
ATOM     12  C   UNL     1      97.136 122.213 117.010  1.00  0.00     0.091 C 
ATOM     13  C   UNL     1      98.574 123.408 115.260  1.00  0.00    -0.011 A 
ATOM     14  C   UNL     1      98.148 121.011 117.089  1.00  0.00     0.061 C 
ATOM     15  C   UNL     1      99.077 122.116 115.032  1.00  0.00     0.010 A 
ATOM     16  C   UNL     1      98.861 124.392 114.312  1.00  0.00     0.009 A 
ATOM     17  C   UNL     1      98.938 120.946 115.820  1.00  0.00    -0.020 A 
ATOM     18  C   UNL     1      99.832 121.815 113.913  1.00  0.00     0.046 A 
ATOM     19  C   UNL     1      99.624 124.079 113.178  1.00  0.00     0.003 A 
ATOM     20  C   UNL     1      99.618 119.941 115.171  1.00  0.00     0.087 A 
ATOM     21  N   UNL     1     100.155 120.479 114.019  1.00  0.00    -0.361 N 
ATOM     22  C   UNL     1     100.127 122.785 112.952  1.00  0.00     0.027 A 
ATOM     23  C   UNL     1      94.976 122.682 118.031  1.00  0.00     0.106 C 
ATOM     24  H   UNL     1     100.710 119.968 113.347  1.00  0.00     0.166 HD
ENDBRANCH   5   7
ENDBRANCH   1   3
BRANCH   1  25
ATOM     25  C   UNL     1      97.537 128.571 118.057  1.00  0.00     0.180 C 
BRANCH  25  26
ATOM     26  O   UNL     1      96.190 128.243 117.740  1.00  0.00    -0.394 OA
ATOM     27  H   UNL     1      95.688 128.257 118.574  1.00  0.00     0.210 HD
ENDBRANCH  25  26
ENDBRANCH   1  25
TORSDOF 4
ENDMDL
MODEL 14
REMARK VINA RESULT:    -4.938      2.972      5.185
REMARK INTER + INTRA:          -6.433
REMARK INTER:                  -6.435
REMARK INTRA:                   0.002
REMARK UNBOUND:                -0.485
REMARK SMILES C[C@@H](CO)NC(=O)[C@@H]1C=C2c3cccc4[nH]cc(c34)C[C@H]2N(C)C1
REMARK SMILES IDX 2 1 1 2 5 3 7 4 6 5 8 7 24 8 9 9 22 10 10 11 21 12 11 13
REMARK SMILES IDX 20 14 19 15 12 16 18 17 15 18 13 19 17 20 16 21 14 22 23 23
REMARK SMILES IDX 3 25 4 26
REMARK H PARENT 5 6 16 24 4 27
ROOT
ATOM      1  C   UNL     1      99.174 120.870 113.448  1.00  0.00     0.104 C 
ATOM      2  C   UNL     1      98.640 119.537 113.973  1.00  0.00     0.033 C 
ENDROOT
BRANCH   1   3
ATOM      3  N   UNL     1     100.200 121.380 114.356  1.00  0.00    -0.351 N 
ATOM      4  O   UNL     1     101.152 122.899 115.676  1.00  0.00    -0.274 OA
ATOM      5  C   UNL     1     100.105 122.431 115.231  1.00  0.00     0.228 C 
ATOM      6  H   UNL     1     101.166 121.151 114.149  1.00  0.00     0.163 HD
BRANCH   5   7
ATOM      7  C   UNL     1      98.714 122.943 115.631  1.00  0.00     0.115 C 
ATOM      8  C   UNL     1      98.854 124.087 116.663  1.00  0.00     0.102 C 
ATOM      9  C   UNL     1      97.894 121.812 116.206  1.00  0.00    -0.007 C 
ATOM     10  N   UNL     1      97.582 124.519 117.275  1.00  0.00    -0.298 NA
ATOM     11  C   UNL     1      97.096 121.999 117.273  1.00  0.00    -0.026 C 
ATOM     12  C   UNL     1      96.908 123.383 117.957  1.00  0.00     0.091 C 
ATOM     13  C   UNL     1      96.424 120.868 117.951  1.00  0.00    -0.011 A 
ATOM     14  C   UNL     1      97.299 123.352 119.481  1.00  0.00     0.061 C 
ATOM     15  C   UNL     1      96.275 121.061 119.334  1.00  0.00     0.010 A 
ATOM     16  C   UNL     1      95.961 119.667 117.409  1.00  0.00     0.009 A 
ATOM     17  C   UNL     1      96.650 122.170 120.132  1.00  0.00    -0.020 A 
ATOM     18  C   UNL     1      95.691 120.104 120.145  1.00  0.00     0.046 A 
ATOM     19  C   UNL     1      95.367 118.703 118.236  1.00  0.00     0.003 A 
ATOM     20  C   UNL     1      96.295 121.872 121.428  1.00  0.00     0.087 A 
ATOM     21  N   UNL     1      95.717 120.620 121.423  1.00  0.00    -0.361 N 
ATOM     22  C   UNL     1      95.220 118.897 119.621  1.00  0.00     0.027 A 
ATOM     23  C   UNL     1      96.696 125.150 116.296  1.00  0.00     0.106 C 
ATOM     24  H   UNL     1      95.363 120.143 122.241  1.00  0.00     0.166 HD
ENDBRANCH   5   7
ENDBRANCH   1   3
BRANCH   1  25
ATOM     25  C   UNL     1      99.724 120.724 112.018  1.00  0.00     0.180 C 
BRANCH  25  26
ATOM     26  O   UNL     1     100.845 119.849 112.001  1.00  0.00    -0.394 OA
ATOM     27  H   UNL     1     101.523 120.240 112.581  1.00  0.00     0.210 HD
ENDBRANCH  25  26
ENDBRANCH   1  25
TORSDOF 4
ENDMDL
MODEL 15
REMARK VINA RESULT:    -4.901      2.721      6.806
REMARK INTER + INTRA:          -6.389
REMARK INTER:                  -5.900
REMARK INTRA:                  -0.490
REMARK UNBOUND:                -0.485
REMARK SMILES C[C@@H](CO)NC(=O)[C@@H]1C=C2c3cccc4[nH]cc(c34)C[C@H]2N(C)C1
REMARK SMILES IDX 2 1 1 2 5 3 7 4 6 5 8 7 24 8 9 9 22 10 10 11 21 12 11 13
REMARK SMILES IDX 20 14 19 15 12 16 18 17 15 18 13 19 17 20 16 21 14 22 23 23
REMARK SMILES IDX 3 25 4 26
REMARK H PARENT 5 6 16 24 4 27
ROOT
ATOM      1  C   UNL     1      93.869 120.808 121.809  1.00  0.00     0.104 C 
ATOM      2  C   UNL     1      93.110 121.613 122.863  1.00  0.00     0.033 C 
ENDROOT
BRANCH   1   3
ATOM      3  N   UNL     1      95.308 120.953 122.021  1.00  0.00    -0.351 N 
ATOM      4  O   UNL     1      97.456 120.836 121.445  1.00  0.00    -0.274 OA
ATOM      5  C   UNL     1      96.298 121.025 121.075  1.00  0.00     0.228 C 
ATOM      6  H   UNL     1      95.677 120.697 122.930  1.00  0.00     0.163 HD
BRANCH   5   7
ATOM      7  C   UNL     1      95.919 121.366 119.627  1.00  0.00     0.115 C 
ATOM      8  C   UNL     1      96.532 120.321 118.665  1.00  0.00     0.102 C 
ATOM      9  C   UNL     1      96.410 122.753 119.279  1.00  0.00    -0.007 C 
ATOM     10  N   UNL     1      96.407 120.659 117.233  1.00  0.00    -0.298 NA
ATOM     11  C   UNL     1      96.945 123.023 118.075  1.00  0.00    -0.026 C 
ATOM     12  C   UNL     1      97.051 121.966 116.940  1.00  0.00     0.091 C 
ATOM     13  C   UNL     1      97.584 124.325 117.781  1.00  0.00    -0.011 A 
ATOM     14  C   UNL     1      98.536 121.749 116.465  1.00  0.00     0.061 C 
ATOM     15  C   UNL     1      98.660 124.224 116.883  1.00  0.00     0.010 A 
ATOM     16  C   UNL     1      97.279 125.589 118.289  1.00  0.00     0.009 A 
ATOM     17  C   UNL     1      99.177 123.080 116.226  1.00  0.00    -0.020 A 
ATOM     18  C   UNL     1      99.399 125.331 116.504  1.00  0.00     0.046 A 
ATOM     19  C   UNL     1      98.031 126.707 117.898  1.00  0.00     0.003 A 
ATOM     20  C   UNL     1     100.236 123.503 115.455  1.00  0.00     0.087 A 
ATOM     21  N   UNL     1     100.361 124.866 115.632  1.00  0.00    -0.361 N 
ATOM     22  C   UNL     1      99.107 126.604 116.999  1.00  0.00     0.027 A 
ATOM     23  C   UNL     1      95.013 120.643 116.791  1.00  0.00     0.106 C 
ATOM     24  H   UNL     1     101.059 125.445 115.188  1.00  0.00     0.166 HD
ENDBRANCH   5   7
ENDBRANCH   1   3
BRANCH   1  25
ATOM     25  C   UNL     1      93.454 119.326 121.836  1.00  0.00     0.180 C 
BRANCH  25  26
ATOM     26  O   UNL     1      93.449 118.785 120.521  1.00  0.00    -0.394 OA
ATOM     27  H   UNL     1      92.727 119.221 120.035  1.00  0.00     0.210 HD
ENDBRANCH  25  26
ENDBRANCH   1  25
TORSDOF 4
ENDMDL
MODEL 16
REMARK VINA RESULT:    -4.867      3.347      4.562
REMARK INTER + INTRA:          -6.348
REMARK INTER:                  -6.418
REMARK INTRA:                   0.070
REMARK UNBOUND:                -0.485
REMARK SMILES C[C@@H](CO)NC(=O)[C@@H]1C=C2c3cccc4[nH]cc(c34)C[C@H]2N(C)C1
REMARK SMILES IDX 2 1 1 2 5 3 7 4 6 5 8 7 24 8 9 9 22 10 10 11 21 12 11 13
REMARK SMILES IDX 20 14 19 15 12 16 18 17 15 18 13 19 17 20 16 21 14 22 23 23
REMARK SMILES IDX 3 25 4 26
REMARK H PARENT 5 6 16 24 4 27
ROOT
ATOM      1  C   UNL     1     100.975 124.853 112.623  1.00  0.00     0.104 C 
ATOM      2  C   UNL     1     101.444 123.456 112.216  1.00  0.00     0.033 C 
ENDROOT
BRANCH   1   3
ATOM      3  N   UNL     1      99.515 124.916 112.573  1.00  0.00    -0.351 N 
ATOM      4  O   UNL     1      97.452 124.092 112.730  1.00  0.00    -0.274 OA
ATOM      5  C   UNL     1      98.614 124.049 113.135  1.00  0.00     0.228 C 
ATOM      6  H   UNL     1      99.094 125.467 111.834  1.00  0.00     0.163 HD
BRANCH   5   7
ATOM      7  C   UNL     1      99.084 123.105 114.250  1.00  0.00     0.115 C 
ATOM      8  C   UNL     1      98.506 121.689 114.016  1.00  0.00     0.102 C 
ATOM      9  C   UNL     1      98.646 123.637 115.595  1.00  0.00    -0.007 C 
ATOM     10  N   UNL     1      98.722 120.747 115.133  1.00  0.00    -0.298 NA
ATOM     11  C   UNL     1      98.189 122.814 116.557  1.00  0.00    -0.026 C 
ATOM     12  C   UNL     1      98.126 121.270 116.390  1.00  0.00     0.091 C 
ATOM     13  C   UNL     1      97.597 123.335 117.809  1.00  0.00    -0.011 A 
ATOM     14  C   UNL     1      96.667 120.710 116.577  1.00  0.00     0.061 C 
ATOM     15  C   UNL     1      96.575 122.518 118.320  1.00  0.00     0.010 A 
ATOM     16  C   UNL     1      97.900 124.507 118.505  1.00  0.00     0.009 A 
ATOM     17  C   UNL     1      96.071 121.291 117.821  1.00  0.00    -0.020 A 
ATOM     18  C   UNL     1      95.884 122.850 119.472  1.00  0.00     0.046 A 
ATOM     19  C   UNL     1      97.198 124.835 119.675  1.00  0.00     0.003 A 
ATOM     20  C   UNL     1      95.070 120.890 118.675  1.00  0.00     0.087 A 
ATOM     21  N   UNL     1      94.965 121.841 119.669  1.00  0.00    -0.361 N 
ATOM     22  C   UNL     1      96.175 124.016 120.184  1.00  0.00     0.027 A 
ATOM     23  C   UNL     1     100.139 120.431 115.309  1.00  0.00     0.106 C 
ATOM     24  H   UNL     1      94.307 121.807 120.435  1.00  0.00     0.166 HD
ENDBRANCH   5   7
ENDBRANCH   1   3
BRANCH   1  25
ATOM     25  C   UNL     1     101.496 125.228 114.022  1.00  0.00     0.180 C 
BRANCH  25  26
ATOM     26  O   UNL     1     100.881 126.426 114.480  1.00  0.00    -0.394 OA
ATOM     27  H   UNL     1     100.757 126.999 113.702  1.00  0.00     0.210 HD
ENDBRANCH  25  26
ENDBRANCH   1  25
TORSDOF 4
ENDMDL
MODEL 17
REMARK VINA RESULT:    -4.808      2.691      4.965
REMARK INTER + INTRA:          -6.277
REMARK INTER:                  -6.726
REMARK INTRA:                   0.449
REMARK UNBOUND:                -0.485
REMARK SMILES C[C@@H](CO)NC(=O)[C@@H]1C=C2c3cccc4[nH]cc(c34)C[C@H]2N(C)C1
REMARK SMILES IDX 2 1 1 2 5 3 7 4 6 5 8 7 24 8 9 9 22 10 10 11 21 12 11 13
REMARK SMILES IDX 20 14 19 15 12 16 18 17 15 18 13 19 17 20 16 21 14 22 23 23
REMARK SMILES IDX 3 25 4 26
REMARK H PARENT 5 6 16 24 4 27
ROOT
ATOM      1  C   UNL     1      99.202 121.913 114.250  1.00  0.00     0.104 C 
ATOM      2  C   UNL     1      99.462 120.481 114.713  1.00  0.00     0.033 C 
ENDROOT
BRANCH   1   3
ATOM      3  N   UNL     1     100.251 122.794 114.760  1.00  0.00    -0.351 N 
ATOM      4  O   UNL     1     101.092 124.725 115.484  1.00  0.00    -0.274 OA
ATOM      5  C   UNL     1     100.105 123.993 115.409  1.00  0.00     0.228 C 
ATOM      6  H   UNL     1     101.183 122.689 114.372  1.00  0.00     0.163 HD
BRANCH   5   7
ATOM      7  C   UNL     1      98.746 124.343 116.030  1.00  0.00     0.115 C 
ATOM      8  C   UNL     1      98.957 125.158 117.327  1.00  0.00     0.102 C 
ATOM      9  C   UNL     1      97.972 123.078 116.322  1.00  0.00    -0.007 C 
ATOM     10  N   UNL     1      97.730 125.375 118.120  1.00  0.00    -0.298 NA
ATOM     11  C   UNL     1      97.252 122.944 117.451  1.00  0.00    -0.026 C 
ATOM     12  C   UNL     1      97.110 124.080 118.503  1.00  0.00     0.091 C 
ATOM     13  C   UNL     1      96.632 121.655 117.831  1.00  0.00    -0.011 A 
ATOM     14  C   UNL     1      97.609 123.636 119.928  1.00  0.00     0.061 C 
ATOM     15  C   UNL     1      96.582 121.454 119.220  1.00  0.00     0.010 A 
ATOM     16  C   UNL     1      96.135 120.642 117.009  1.00  0.00     0.009 A 
ATOM     17  C   UNL     1      97.012 122.306 120.268  1.00  0.00    -0.020 A 
ATOM     18  C   UNL     1      96.061 120.296 119.770  1.00  0.00     0.046 A 
ATOM     19  C   UNL     1      95.604 119.472 117.574  1.00  0.00     0.003 A 
ATOM     20  C   UNL     1      96.751 121.653 121.450  1.00  0.00     0.087 A 
ATOM     21  N   UNL     1      96.177 120.438 121.136  1.00  0.00    -0.361 N 
ATOM     22  C   UNL     1      95.556 119.272 118.965  1.00  0.00     0.027 A 
ATOM     23  C   UNL     1      96.775 126.233 117.418  1.00  0.00     0.106 C 
ATOM     24  H   UNL     1      95.883 119.746 121.812  1.00  0.00     0.166 HD
ENDBRANCH   5   7
ENDBRANCH   1   3
BRANCH   1  25
ATOM     25  C   UNL     1      99.112 121.993 112.715  1.00  0.00     0.180 C 
BRANCH  25  26
ATOM     26  O   UNL     1      98.795 120.721 112.166  1.00  0.00    -0.394 OA
ATOM     27  H   UNL     1      97.824 120.651 112.148  1.00  0.00     0.210 HD
ENDBRANCH  25  26
ENDBRANCH   1  25
TORSDOF 4
ENDMDL
MODEL 18
REMARK VINA RESULT:    -4.802      2.867      4.397
REMARK INTER + INTRA:          -6.270
REMARK INTER:                  -5.949
REMARK INTRA:                  -0.321
REMARK UNBOUND:                -0.485
REMARK SMILES C[C@@H](CO)NC(=O)[C@@H]1C=C2c3cccc4[nH]cc(c34)C[C@H]2N(C)C1
REMARK SMILES IDX 2 1 1 2 5 3 7 4 6 5 8 7 24 8 9 9 22 10 10 11 21 12 11 13
REMARK SMILES IDX 20 14 19 15 12 16 18 17 15 18 13 19 17 20 16 21 14 22 23 23
REMARK SMILES IDX 3 25 4 26
REMARK H PARENT 5 6 16 24 4 27
ROOT
ATOM      1  C   UNL     1     100.514 124.813 113.729  1.00  0.00     0.104 C 
ATOM      2  C   UNL     1     100.612 124.922 112.208  1.00  0.00     0.033 C 
ENDROOT
BRANCH   1   3
ATOM      3  N   UNL     1     100.713 123.423 114.137  1.00  0.00    -0.351 N 
ATOM      4  O   UNL     1     100.566 121.684 115.519  1.00  0.00    -0.274 OA
ATOM      5  C   UNL     1     100.056 122.730 115.121  1.00  0.00     0.228 C 
ATOM      6  H   UNL     1     101.593 122.983 113.893  1.00  0.00     0.163 HD
BRANCH   5   7
ATOM      7  C   UNL     1      98.718 123.270 115.645  1.00  0.00     0.115 C 
ATOM      8  C   UNL     1      98.973 124.294 116.776  1.00  0.00     0.102 C 
ATOM      9  C   UNL     1      97.864 122.130 116.149  1.00  0.00    -0.007 C 
ATOM     10  N   UNL     1      97.758 124.727 117.495  1.00  0.00    -0.298 NA
ATOM     11  C   UNL     1      97.131 122.249 117.271  1.00  0.00    -0.026 C 
ATOM     12  C   UNL     1      97.056 123.564 118.097  1.00  0.00     0.091 C 
ATOM     13  C   UNL     1      96.429 121.091 117.869  1.00  0.00    -0.011 A 
ATOM     14  C   UNL     1      97.518 123.358 119.587  1.00  0.00     0.061 C 
ATOM     15  C   UNL     1      96.360 121.150 119.271  1.00  0.00     0.010 A 
ATOM     16  C   UNL     1      95.874 119.977 117.237  1.00  0.00     0.009 A 
ATOM     17  C   UNL     1      96.836 122.151 120.153  1.00  0.00    -0.020 A 
ATOM     18  C   UNL     1      95.763 120.146 120.013  1.00  0.00     0.046 A 
ATOM     19  C   UNL     1      95.266 118.965 117.996  1.00  0.00     0.003 A 
ATOM     20  C   UNL     1      96.528 121.742 121.430  1.00  0.00     0.087 A 
ATOM     21  N   UNL     1      95.880 120.528 121.333  1.00  0.00    -0.361 N 
ATOM     22  C   UNL     1      95.198 119.026 119.399  1.00  0.00     0.027 A 
ATOM     23  C   UNL     1      96.864 125.499 116.633  1.00  0.00     0.106 C 
ATOM     24  H   UNL     1      95.540 119.990 122.117  1.00  0.00     0.166 HD
ENDBRANCH   5   7
ENDBRANCH   1   3
BRANCH   1  25
ATOM     25  C   UNL     1     101.531 125.741 114.419  1.00  0.00     0.180 C 
BRANCH  25  26
ATOM     26  O   UNL     1     100.921 126.975 114.772  1.00  0.00    -0.394 OA
ATOM     27  H   UNL     1     101.602 127.517 115.209  1.00  0.00     0.210 HD
ENDBRANCH  25  26
ENDBRANCH   1  25
TORSDOF 4
ENDMDL
MODEL 19
REMARK VINA RESULT:    -4.680      3.578      7.476
REMARK INTER + INTRA:          -6.123
REMARK INTER:                  -5.628
REMARK INTRA:                  -0.495
REMARK UNBOUND:                -0.485
REMARK SMILES C[C@@H](CO)NC(=O)[C@@H]1C=C2c3cccc4[nH]cc(c34)C[C@H]2N(C)C1
REMARK SMILES IDX 2 1 1 2 5 3 7 4 6 5 8 7 24 8 9 9 22 10 10 11 21 12 11 13
REMARK SMILES IDX 20 14 19 15 12 16 18 17 15 18 13 19 17 20 16 21 14 22 23 23
REMARK SMILES IDX 3 25 4 26
REMARK H PARENT 5 6 16 24 4 27
ROOT
ATOM      1  C   UNL     1      96.299 122.945 117.839  1.00  0.00     0.104 C 
ATOM      2  C   UNL     1      95.228 121.885 117.582  1.00  0.00     0.033 C 
ENDROOT
BRANCH   1   3
ATOM      3  N   UNL     1      96.752 122.861 119.226  1.00  0.00    -0.351 N 
ATOM      4  O   UNL     1      97.901 123.514 121.018  1.00  0.00    -0.274 OA
ATOM      5  C   UNL     1      97.307 123.851 119.994  1.00  0.00     0.228 C 
ATOM      6  H   UNL     1      96.954 121.939 119.598  1.00  0.00     0.163 HD
BRANCH   5   7
ATOM      7  C   UNL     1      97.135 125.314 119.561  1.00  0.00     0.115 C 
ATOM      8  C   UNL     1      98.520 125.997 119.461  1.00  0.00     0.102 C 
ATOM      9  C   UNL     1      96.258 126.044 120.551  1.00  0.00    -0.007 C 
ATOM     10  N   UNL     1      98.468 127.458 119.252  1.00  0.00    -0.298 NA
ATOM     11  C   UNL     1      96.533 127.306 120.931  1.00  0.00    -0.026 C 
ATOM     12  C   UNL     1      97.720 128.124 120.351  1.00  0.00     0.091 C 
ATOM     13  C   UNL     1      95.787 127.970 122.023  1.00  0.00    -0.011 A 
ATOM     14  C   UNL     1      98.714 128.608 121.472  1.00  0.00     0.061 C 
ATOM     15  C   UNL     1      96.573 128.869 122.763  1.00  0.00     0.010 A 
ATOM     16  C   UNL     1      94.457 127.799 122.411  1.00  0.00     0.009 A 
ATOM     17  C   UNL     1      97.933 129.227 122.589  1.00  0.00    -0.020 A 
ATOM     18  C   UNL     1      96.060 129.569 123.840  1.00  0.00     0.046 A 
ATOM     19  C   UNL     1      93.942 128.515 123.502  1.00  0.00     0.003 A 
ATOM     20  C   UNL     1      98.237 130.142 123.571  1.00  0.00     0.087 A 
ATOM     21  N   UNL     1      97.097 130.339 124.322  1.00  0.00    -0.361 N 
ATOM     22  C   UNL     1      94.731 129.414 124.242  1.00  0.00     0.027 A 
ATOM     23  C   UNL     1      97.906 127.800 117.946  1.00  0.00     0.106 C 
ATOM     24  H   UNL     1      97.028 130.961 125.116  1.00  0.00     0.166 HD
ENDBRANCH   5   7
ENDBRANCH   1   3
BRANCH   1  25
ATOM     25  C   UNL     1      97.479 122.791 116.862  1.00  0.00     0.180 C 
BRANCH  25  26
ATOM     26  O   UNL     1      97.798 124.040 116.263  1.00  0.00    -0.394 OA
ATOM     27  H   UNL     1      97.125 124.680 116.558  1.00  0.00     0.210 HD
ENDBRANCH  25  26
ENDBRANCH   1  25
TORSDOF 4
ENDMDL
