MODEL 1
REMARK VINA RESULT:    -7.970      0.000      0.000
REMARK INTER + INTRA:         -10.084
REMARK INTER:                  -9.601
REMARK INTRA:                  -0.483
REMARK UNBOUND:                -0.483
REMARK SMILES C[C@@H](CO)NC(=O)[C@@H]1C=C2c3cccc4[nH]cc(c34)C[C@H]2N(C)C1
REMARK SMILES IDX 2 1 1 2 5 3 7 4 6 5 8 7 24 8 9 9 22 10 10 11 21 12 11 13
REMARK SMILES IDX 20 14 19 15 12 16 18 17 15 18 13 19 17 20 16 21 14 22 23 23
REMARK SMILES IDX 3 25 4 26
REMARK H PARENT 5 6 16 24 4 27
ROOT
ATOM      1  C   UNL     1      97.970 107.257  90.339  1.00  0.00     0.104 C 
ATOM      2  C   UNL     1      98.319 108.648  89.808  1.00  0.00     0.033 C 
ENDROOT
BRANCH   1   3
ATOM      3  N   UNL     1      96.580 107.238  90.792  1.00  0.00    -0.351 N 
ATOM      4  O   UNL     1      94.927 106.796  92.217  1.00  0.00    -0.274 OA
ATOM      5  C   UNL     1      96.112 107.095  92.073  1.00  0.00     0.228 C 
ATOM      6  H   UNL     1      95.865 107.023  90.106  1.00  0.00     0.163 HD
BRANCH   5   7
ATOM      7  C   UNL     1      97.069 107.344  93.247  1.00  0.00     0.115 C 
ATOM      8  C   UNL     1      96.808 106.306  94.364  1.00  0.00     0.102 C 
ATOM      9  C   UNL     1      96.881 108.746  93.776  1.00  0.00    -0.007 C 
ATOM     10  N   UNL     1      97.527 106.572  95.626  1.00  0.00    -0.298 NA
ATOM     11  C   UNL     1      96.901 109.003  95.097  1.00  0.00    -0.026 C 
ATOM     12  C   UNL     1      97.170 107.909  96.168  1.00  0.00     0.091 C 
ATOM     13  C   UNL     1      96.548 110.336  95.636  1.00  0.00    -0.011 A 
ATOM     14  C   UNL     1      95.989 107.783  97.201  1.00  0.00     0.061 C 
ATOM     15  C   UNL     1      95.921 110.276  96.892  1.00  0.00     0.010 A 
ATOM     16  C   UNL     1      96.730 111.594  95.061  1.00  0.00     0.009 A 
ATOM     17  C   UNL     1      95.615 109.147  97.692  1.00  0.00    -0.020 A 
ATOM     18  C   UNL     1      95.494 111.417  97.548  1.00  0.00     0.046 A 
ATOM     19  C   UNL     1      96.299 112.747  95.733  1.00  0.00     0.003 A 
ATOM     20  C   UNL     1      94.997 109.614  98.829  1.00  0.00     0.087 A 
ATOM     21  N   UNL     1      94.929 110.988  98.730  1.00  0.00    -0.361 N 
ATOM     22  C   UNL     1      95.671 112.686  96.990  1.00  0.00     0.027 A 
ATOM     23  C   UNL     1      98.974 106.433  95.466  1.00  0.00     0.106 C 
ATOM     24  H   UNL     1      94.520 111.598  99.425  1.00  0.00     0.166 HD
ENDBRANCH   5   7
ENDBRANCH   1   3
BRANCH   1  25
ATOM     25  C   UNL     1      98.217 106.177  89.270  1.00  0.00     0.180 C 
BRANCH  25  26
ATOM     26  O   UNL     1      97.548 104.971  89.616  1.00  0.00    -0.394 OA
ATOM     27  H   UNL     1      97.793 104.760  90.534  1.00  0.00     0.210 HD
ENDBRANCH  25  26
ENDBRANCH   1  25
TORSDOF 4
ENDMDL
MODEL 2
REMARK VINA RESULT:    -7.956      2.899      6.485
REMARK INTER + INTRA:         -10.067
REMARK INTER:                  -9.591
REMARK INTRA:                  -0.476
REMARK UNBOUND:                -0.483
REMARK SMILES C[C@@H](CO)NC(=O)[C@@H]1C=C2c3cccc4[nH]cc(c34)C[C@H]2N(C)C1
REMARK SMILES IDX 2 1 1 2 5 3 7 4 6 5 8 7 24 8 9 9 22 10 10 11 21 12 11 13
REMARK SMILES IDX 20 14 19 15 12 16 18 17 15 18 13 19 17 20 16 21 14 22 23 23
REMARK SMILES IDX 3 25 4 26
REMARK H PARENT 5 6 16 24 4 27
ROOT
ATOM      1  C   UNL     1      95.867 111.755  95.209  1.00  0.00     0.104 C 
ATOM      2  C   UNL     1      96.605 113.052  94.876  1.00  0.00     0.033 C 
ENDROOT
BRANCH   1   3
ATOM      3  N   UNL     1      96.314 111.254  96.507  1.00  0.00    -0.351 N 
ATOM      4  O   UNL     1      96.769 109.681  98.016  1.00  0.00    -0.274 OA
ATOM      5  C   UNL     1      96.729 109.986  96.825  1.00  0.00     0.228 C 
ATOM      6  H   UNL     1      96.040 111.777  97.332  1.00  0.00     0.163 HD
BRANCH   5   7
ATOM      7  C   UNL     1      97.149 109.036  95.696  1.00  0.00     0.115 C 
ATOM      8  C   UNL     1      95.986 108.071  95.364  1.00  0.00     0.102 C 
ATOM      9  C   UNL     1      98.378 108.258  96.106  1.00  0.00    -0.007 C 
ATOM     10  N   UNL     1      96.343 106.978  94.437  1.00  0.00    -0.298 NA
ATOM     11  C   UNL     1      98.511 106.953  95.809  1.00  0.00    -0.026 C 
ATOM     12  C   UNL     1      97.458 106.162  94.983  1.00  0.00     0.091 C 
ATOM     13  C   UNL     1      99.623 106.141  96.351  1.00  0.00    -0.011 A 
ATOM     14  C   UNL     1      96.893 104.922  95.771  1.00  0.00     0.061 C 
ATOM     15  C   UNL     1      99.267 104.802  96.585  1.00  0.00     0.010 A 
ATOM     16  C   UNL     1     100.924 106.532  96.672  1.00  0.00     0.009 A 
ATOM     17  C   UNL     1      98.032 104.146  96.354  1.00  0.00    -0.020 A 
ATOM     18  C   UNL     1     100.165 103.891  97.113  1.00  0.00     0.046 A 
ATOM     19  C   UNL     1     101.830 105.603  97.203  1.00  0.00     0.003 A 
ATOM     20  C   UNL     1      98.190 102.839  96.752  1.00  0.00     0.087 A 
ATOM     21  N   UNL     1      99.484 102.697  97.210  1.00  0.00    -0.361 N 
ATOM     22  C   UNL     1     101.472 104.263  97.437  1.00  0.00     0.027 A 
ATOM     23  C   UNL     1      96.660 107.482  93.101  1.00  0.00     0.106 C 
ATOM     24  H   UNL     1      99.879 101.839  97.569  1.00  0.00     0.166 HD
ENDBRANCH   5   7
ENDBRANCH   1   3
BRANCH   1  25
ATOM     25  C   UNL     1      94.342 111.964  95.193  1.00  0.00     0.180 C 
BRANCH  25  26
ATOM     26  O   UNL     1      93.669 110.720  95.046  1.00  0.00    -0.394 OA
ATOM     27  H   UNL     1      93.210 110.541  95.886  1.00  0.00     0.210 HD
ENDBRANCH  25  26
ENDBRANCH   1  25
TORSDOF 4
ENDMDL
MODEL 3
REMARK VINA RESULT:    -7.939      2.697      4.961
REMARK INTER + INTRA:         -10.047
REMARK INTER:                  -9.537
REMARK INTRA:                  -0.510
REMARK UNBOUND:                -0.483
REMARK SMILES C[C@@H](CO)NC(=O)[C@@H]1C=C2c3cccc4[nH]cc(c34)C[C@H]2N(C)C1
REMARK SMILES IDX 2 1 1 2 5 3 7 4 6 5 8 7 24 8 9 9 22 10 10 11 21 12 11 13
REMARK SMILES IDX 20 14 19 15 12 16 18 17 15 18 13 19 17 20 16 21 14 22 23 23
REMARK SMILES IDX 3 25 4 26
REMARK H PARENT 5 6 16 24 4 27
ROOT
ATOM      1  C   UNL     1      97.887 106.691  95.664  1.00  0.00     0.104 C 
ATOM      2  C   UNL     1      99.270 106.047  95.766  1.00  0.00     0.033 C 
ENDROOT
BRANCH   1   3
ATOM      3  N   UNL     1      97.735 107.327  94.357  1.00  0.00    -0.351 N 
ATOM      4  O   UNL     1      96.754 108.645  92.855  1.00  0.00    -0.274 OA
ATOM      5  C   UNL     1      97.009 108.446  94.042  1.00  0.00     0.228 C 
ATOM      6  H   UNL     1      97.934 106.766  93.536  1.00  0.00     0.163 HD
BRANCH   5   7
ATOM      7  C   UNL     1      96.583 109.398  95.168  1.00  0.00     0.115 C 
ATOM      8  C   UNL     1      95.040 109.475  95.234  1.00  0.00     0.102 C 
ATOM      9  C   UNL     1      97.169 110.771  94.931  1.00  0.00    -0.007 C 
ATOM     10  N   UNL     1      94.517 110.516  96.142  1.00  0.00    -0.298 NA
ATOM     11  C   UNL     1      96.455 111.886  95.169  1.00  0.00    -0.026 C 
ATOM     12  C   UNL     1      95.014 111.860  95.750  1.00  0.00     0.091 C 
ATOM     13  C   UNL     1      96.951 113.225  94.780  1.00  0.00    -0.011 A 
ATOM     14  C   UNL     1      93.977 112.571  94.803  1.00  0.00     0.061 C 
ATOM     15  C   UNL     1      95.924 114.109  94.408  1.00  0.00     0.010 A 
ATOM     16  C   UNL     1      98.265 113.692  94.714  1.00  0.00     0.009 A 
ATOM     17  C   UNL     1      94.523 113.899  94.381  1.00  0.00    -0.020 A 
ATOM     18  C   UNL     1      96.191 115.401  93.990  1.00  0.00     0.046 A 
ATOM     19  C   UNL     1      98.528 115.004  94.293  1.00  0.00     0.003 A 
ATOM     20  C   UNL     1      93.949 115.069  93.939  1.00  0.00     0.087 A 
ATOM     21  N   UNL     1      94.968 115.969  93.705  1.00  0.00    -0.361 N 
ATOM     22  C   UNL     1      97.499 115.887  93.921  1.00  0.00     0.027 A 
ATOM     23  C   UNL     1      94.829 110.222  97.541  1.00  0.00     0.106 C 
ATOM     24  H   UNL     1      94.839 116.914  93.369  1.00  0.00     0.166 HD
ENDBRANCH   5   7
ENDBRANCH   1   3
BRANCH   1  25
ATOM     25  C   UNL     1      96.773 105.656  95.908  1.00  0.00     0.180 C 
BRANCH  25  26
ATOM     26  O   UNL     1      95.689 106.246  96.613  1.00  0.00    -0.394 OA
ATOM     27  H   UNL     1      95.119 106.679  95.952  1.00  0.00     0.210 HD
ENDBRANCH  25  26
ENDBRANCH   1  25
TORSDOF 4
ENDMDL
MODEL 4
REMARK VINA RESULT:    -7.833      4.158      6.494
REMARK INTER + INTRA:          -9.919
REMARK INTER:                  -9.666
REMARK INTRA:                  -0.253
REMARK UNBOUND:                -0.483
REMARK SMILES C[C@@H](CO)NC(=O)[C@@H]1C=C2c3cccc4[nH]cc(c34)C[C@H]2N(C)C1
REMARK SMILES IDX 2 1 1 2 5 3 7 4 6 5 8 7 24 8 9 9 22 10 10 11 21 12 11 13
REMARK SMILES IDX 20 14 19 15 12 16 18 17 15 18 13 19 17 20 16 21 14 22 23 23
REMARK SMILES IDX 3 25 4 26
REMARK H PARENT 5 6 16 24 4 27
ROOT
ATOM      1  C   UNL     1     100.816 105.880 100.777  1.00  0.00     0.104 C 
ATOM      2  C   UNL     1     100.958 106.141 102.276  1.00  0.00     0.033 C 
ENDROOT
BRANCH   1   3
ATOM      3  N   UNL     1     101.103 107.107 100.035  1.00  0.00    -0.351 N 
ATOM      4  O   UNL     1     101.312 108.357  98.204  1.00  0.00    -0.274 OA
ATOM      5  C   UNL     1     100.723 107.428  98.757  1.00  0.00     0.228 C 
ATOM      6  H   UNL     1     101.884 107.673 100.347  1.00  0.00     0.163 HD
BRANCH   5   7
ATOM      7  C   UNL     1      99.576 106.647  98.103  1.00  0.00     0.115 C 
ATOM      8  C   UNL     1      99.827 106.524  96.581  1.00  0.00     0.102 C 
ATOM      9  C   UNL     1      98.261 107.345  98.365  1.00  0.00    -0.007 C 
ATOM     10  N   UNL     1      98.691 105.971  95.816  1.00  0.00    -0.298 NA
ATOM     11  C   UNL     1      97.318 107.439  97.411  1.00  0.00    -0.026 C 
ATOM     12  C   UNL     1      97.472 106.802  96.002  1.00  0.00     0.091 C 
ATOM     13  C   UNL     1      96.103 108.265  97.596  1.00  0.00    -0.011 A 
ATOM     14  C   UNL     1      97.358 107.868  94.850  1.00  0.00     0.061 C 
ATOM     15  C   UNL     1      95.640 108.844  96.403  1.00  0.00     0.010 A 
ATOM     16  C   UNL     1      95.404 108.550  98.770  1.00  0.00     0.009 A 
ATOM     17  C   UNL     1      96.153 108.724  95.087  1.00  0.00    -0.020 A 
ATOM     18  C   UNL     1      94.530 109.669  96.377  1.00  0.00     0.046 A 
ATOM     19  C   UNL     1      94.277 109.384  98.735  1.00  0.00     0.003 A 
ATOM     20  C   UNL     1      95.350 109.487  94.271  1.00  0.00     0.087 A 
ATOM     21  N   UNL     1      94.372 110.054  95.062  1.00  0.00    -0.361 N 
ATOM     22  C   UNL     1      93.815 109.963  97.540  1.00  0.00     0.027 A 
ATOM     23  C   UNL     1      98.436 104.572  96.158  1.00  0.00     0.106 C 
ATOM     24  H   UNL     1      93.642 110.668  94.728  1.00  0.00     0.166 HD
ENDBRANCH   5   7
ENDBRANCH   1   3
BRANCH   1  25
ATOM     25  C   UNL     1     101.736 104.732 100.322  1.00  0.00     0.180 C 
BRANCH  25  26
ATOM     26  O   UNL     1     102.795 105.230  99.516  1.00  0.00    -0.394 OA
ATOM     27  H   UNL     1     103.380 105.748 100.098  1.00  0.00     0.210 HD
ENDBRANCH  25  26
ENDBRANCH   1  25
TORSDOF 4
ENDMDL
MODEL 5
REMARK VINA RESULT:    -7.659      3.583      5.889
REMARK INTER + INTRA:          -9.709
REMARK INTER:                  -9.247
REMARK INTRA:                  -0.462
REMARK UNBOUND:                -0.483
REMARK SMILES C[C@@H](CO)NC(=O)[C@@H]1C=C2c3cccc4[nH]cc(c34)C[C@H]2N(C)C1
REMARK SMILES IDX 2 1 1 2 5 3 7 4 6 5 8 7 24 8 9 9 22 10 10 11 21 12 11 13
REMARK SMILES IDX 20 14 19 15 12 16 18 17 15 18 13 19 17 20 16 21 14 22 23 23
REMARK SMILES IDX 3 25 4 26
REMARK H PARENT 5 6 16 24 4 27
ROOT
ATOM      1  C   UNL     1      96.491 106.821  92.640  1.00  0.00     0.104 C 
ATOM      2  C   UNL     1      97.801 107.352  92.056  1.00  0.00     0.033 C 
ENDROOT
BRANCH   1   3
ATOM      3  N   UNL     1      96.291 107.371  93.980  1.00  0.00    -0.351 N 
ATOM      4  O   UNL     1      96.043 107.262  96.190  1.00  0.00    -0.274 OA
ATOM      5  C   UNL     1      96.559 106.774  95.185  1.00  0.00     0.228 C 
ATOM      6  H   UNL     1      95.637 108.140  94.079  1.00  0.00     0.163 HD
BRANCH   5   7
ATOM      7  C   UNL     1      97.503 105.565  95.223  1.00  0.00     0.115 C 
ATOM      8  C   UNL     1      96.939 104.490  96.182  1.00  0.00     0.102 C 
ATOM      9  C   UNL     1      98.880 105.999  95.670  1.00  0.00    -0.007 C 
ATOM     10  N   UNL     1      97.861 103.371  96.458  1.00  0.00    -0.298 NA
ATOM     11  C   UNL     1      99.611 105.246  96.512  1.00  0.00    -0.026 C 
ATOM     12  C   UNL     1      99.136 103.865  97.042  1.00  0.00     0.091 C 
ATOM     13  C   UNL     1     100.881 105.737  97.091  1.00  0.00    -0.011 A 
ATOM     14  C   UNL     1      99.069 103.820  98.613  1.00  0.00     0.061 C 
ATOM     15  C   UNL     1     101.121 105.255  98.389  1.00  0.00     0.010 A 
ATOM     16  C   UNL     1     101.821 106.610  96.539  1.00  0.00     0.009 A 
ATOM     17  C   UNL     1     100.342 104.371  99.177  1.00  0.00    -0.020 A 
ATOM     18  C   UNL     1     102.245 105.621  99.106  1.00  0.00     0.046 A 
ATOM     19  C   UNL     1     102.961 106.974  97.271  1.00  0.00     0.003 A 
ATOM     20  C   UNL     1     101.002 104.212 100.374  1.00  0.00     0.087 A 
ATOM     21  N   UNL     1     102.151 104.974 100.320  1.00  0.00    -0.361 N 
ATOM     22  C   UNL     1     103.199 106.490  98.570  1.00  0.00     0.027 A 
ATOM     23  C   UNL     1      98.104 102.561  95.264  1.00  0.00     0.106 C 
ATOM     24  H   UNL     1     102.829 105.050 101.065  1.00  0.00     0.166 HD
ENDBRANCH   5   7
ENDBRANCH   1   3
BRANCH   1  25
ATOM     25  C   UNL     1      95.300 107.153  91.723  1.00  0.00     0.180 C 
BRANCH  25  26
ATOM     26  O   UNL     1      94.075 106.777  92.340  1.00  0.00    -0.394 OA
ATOM     27  H   UNL     1      93.647 106.126  91.755  1.00  0.00     0.210 HD
ENDBRANCH  25  26
ENDBRANCH   1  25
TORSDOF 4
ENDMDL
MODEL 6
REMARK VINA RESULT:    -7.622      4.034      7.661
REMARK INTER + INTRA:          -9.665
REMARK INTER:                  -9.227
REMARK INTRA:                  -0.438
REMARK UNBOUND:                -0.483
REMARK SMILES C[C@@H](CO)NC(=O)[C@@H]1C=C2c3cccc4[nH]cc(c34)C[C@H]2N(C)C1
REMARK SMILES IDX 2 1 1 2 5 3 7 4 6 5 8 7 24 8 9 9 22 10 10 11 21 12 11 13
REMARK SMILES IDX 20 14 19 15 12 16 18 17 15 18 13 19 17 20 16 21 14 22 23 23
REMARK SMILES IDX 3 25 4 26
REMARK H PARENT 5 6 16 24 4 27
ROOT
ATOM      1  C   UNL     1      99.325 111.477  98.773  1.00  0.00     0.104 C 
ATOM      2  C   UNL     1     100.714 110.938  99.112  1.00  0.00     0.033 C 
ENDROOT
BRANCH   1   3
ATOM      3  N   UNL     1      98.307 110.671  99.446  1.00  0.00    -0.351 N 
ATOM      4  O   UNL     1      96.454 109.443  99.559  1.00  0.00    -0.274 OA
ATOM      5  C   UNL     1      97.424 109.786  98.885  1.00  0.00     0.228 C 
ATOM      6  H   UNL     1      98.003 110.972 100.366  1.00  0.00     0.163 HD
BRANCH   5   7
ATOM      7  C   UNL     1      97.704 109.249  97.474  1.00  0.00     0.115 C 
ATOM      8  C   UNL     1      96.396 108.706  96.852  1.00  0.00     0.102 C 
ATOM      9  C   UNL     1      98.750 108.160  97.535  1.00  0.00    -0.007 C 
ATOM     10  N   UNL     1      96.579 107.979  95.580  1.00  0.00    -0.298 NA
ATOM     11  C   UNL     1      98.649 107.052  96.779  1.00  0.00    -0.026 C 
ATOM     12  C   UNL     1      97.501 106.826  95.756  1.00  0.00     0.091 C 
ATOM     13  C   UNL     1      99.568 105.905  96.953  1.00  0.00    -0.011 A 
ATOM     14  C   UNL     1      96.684 105.515  96.056  1.00  0.00     0.061 C 
ATOM     15  C   UNL     1      98.961 104.665  96.695  1.00  0.00     0.010 A 
ATOM     16  C   UNL     1     100.906 105.902  97.353  1.00  0.00     0.009 A 
ATOM     17  C   UNL     1      97.635 104.382  96.281  1.00  0.00    -0.020 A 
ATOM     18  C   UNL     1      99.652 103.473  96.828  1.00  0.00     0.046 A 
ATOM     19  C   UNL     1     101.602 104.691  97.481  1.00  0.00     0.003 A 
ATOM     20  C   UNL     1      97.531 103.014  96.171  1.00  0.00     0.087 A 
ATOM     21  N   UNL     1      98.757 102.476  96.505  1.00  0.00    -0.361 N 
ATOM     22  C   UNL     1     100.992 103.450  97.223  1.00  0.00     0.027 A 
ATOM     23  C   UNL     1      97.036 108.865  94.509  1.00  0.00     0.106 C 
ATOM     24  H   UNL     1      98.971 101.488  96.514  1.00  0.00     0.166 HD
ENDBRANCH   5   7
ENDBRANCH   1   3
BRANCH   1  25
ATOM     25  C   UNL     1      99.195 112.962  99.156  1.00  0.00     0.180 C 
BRANCH  25  26
ATOM     26  O   UNL     1      99.958 113.246 100.322  1.00  0.00    -0.394 OA
ATOM     27  H   UNL     1      99.927 112.452 100.885  1.00  0.00     0.210 HD
ENDBRANCH  25  26
ENDBRANCH   1  25
TORSDOF 4
ENDMDL
MODEL 7
REMARK VINA RESULT:    -7.412      4.239      7.641
REMARK INTER + INTRA:          -9.411
REMARK INTER:                  -8.928
REMARK INTRA:                  -0.483
REMARK UNBOUND:                -0.483
REMARK SMILES C[C@@H](CO)NC(=O)[C@@H]1C=C2c3cccc4[nH]cc(c34)C[C@H]2N(C)C1
REMARK SMILES IDX 2 1 1 2 5 3 7 4 6 5 8 7 24 8 9 9 22 10 10 11 21 12 11 13
REMARK SMILES IDX 20 14 19 15 12 16 18 17 15 18 13 19 17 20 16 21 14 22 23 23
REMARK SMILES IDX 3 25 4 26
REMARK H PARENT 5 6 16 24 4 27
ROOT
ATOM      1  C   UNL     1      95.827 111.398  98.328  1.00  0.00     0.104 C 
ATOM      2  C   UNL     1      95.470 112.207  99.575  1.00  0.00     0.033 C 
ENDROOT
BRANCH   1   3
ATOM      3  N   UNL     1      95.232 110.066  98.418  1.00  0.00    -0.351 N 
ATOM      4  O   UNL     1      95.132 107.871  98.059  1.00  0.00    -0.274 OA
ATOM      5  C   UNL     1      95.849 108.853  98.250  1.00  0.00     0.228 C 
ATOM      6  H   UNL     1      94.226 109.993  98.313  1.00  0.00     0.163 HD
BRANCH   5   7
ATOM      7  C   UNL     1      97.379 108.778  98.338  1.00  0.00     0.115 C 
ATOM      8  C   UNL     1      97.980 108.639  96.920  1.00  0.00     0.102 C 
ATOM      9  C   UNL     1      97.788 107.606  99.201  1.00  0.00    -0.007 C 
ATOM     10  N   UNL     1      99.428 108.352  96.894  1.00  0.00    -0.298 NA
ATOM     11  C   UNL     1      98.836 106.829  98.872  1.00  0.00    -0.026 C 
ATOM     12  C   UNL     1      99.733 107.098  97.632  1.00  0.00     0.091 C 
ATOM     13  C   UNL     1      99.141 105.582  99.609  1.00  0.00    -0.011 A 
ATOM     14  C   UNL     1      99.764 105.875  96.642  1.00  0.00     0.061 C 
ATOM     15  C   UNL     1      99.701 104.582  98.796  1.00  0.00     0.010 A 
ATOM     16  C   UNL     1      98.925 105.280 100.954  1.00  0.00     0.009 A 
ATOM     17  C   UNL     1     100.021 104.620  97.416  1.00  0.00    -0.020 A 
ATOM     18  C   UNL     1     100.032 103.336  99.298  1.00  0.00     0.046 A 
ATOM     19  C   UNL     1      99.267 104.015 101.457  1.00  0.00     0.003 A 
ATOM     20  C   UNL     1     100.542 103.389  97.090  1.00  0.00     0.087 A 
ATOM     21  N   UNL     1     100.542 102.621  98.235  1.00  0.00    -0.361 N 
ATOM     22  C   UNL     1      99.827 103.015 100.642  1.00  0.00     0.027 A 
ATOM     23  C   UNL     1     100.213 109.474  97.407  1.00  0.00     0.106 C 
ATOM     24  H   UNL     1     100.868 101.666  98.291  1.00  0.00     0.166 HD
ENDBRANCH   5   7
ENDBRANCH   1   3
BRANCH   1  25
ATOM     25  C   UNL     1      95.370 112.121  97.048  1.00  0.00     0.180 C 
BRANCH  25  26
ATOM     26  O   UNL     1      95.917 111.491  95.897  1.00  0.00    -0.394 OA
ATOM     27  H   UNL     1      96.822 111.833  95.785  1.00  0.00     0.210 HD
ENDBRANCH  25  26
ENDBRANCH   1  25
TORSDOF 4
ENDMDL
MODEL 8
REMARK VINA RESULT:    -7.401      2.567      5.148
REMARK INTER + INTRA:          -9.399
REMARK INTER:                  -9.240
REMARK INTRA:                  -0.158
REMARK UNBOUND:                -0.483
REMARK SMILES C[C@@H](CO)NC(=O)[C@@H]1C=C2c3cccc4[nH]cc(c34)C[C@H]2N(C)C1
REMARK SMILES IDX 2 1 1 2 5 3 7 4 6 5 8 7 24 8 9 9 22 10 10 11 21 12 11 13
REMARK SMILES IDX 20 14 19 15 12 16 18 17 15 18 13 19 17 20 16 21 14 22 23 23
REMARK SMILES IDX 3 25 4 26
REMARK H PARENT 5 6 16 24 4 27
ROOT
ATOM      1  C   UNL     1      96.381 105.985  90.216  1.00  0.00     0.104 C 
ATOM      2  C   UNL     1      96.799 104.914  89.208  1.00  0.00     0.033 C 
ENDROOT
BRANCH   1   3
ATOM      3  N   UNL     1      97.375 107.057  90.235  1.00  0.00    -0.351 N 
ATOM      4  O   UNL     1      98.211 109.024  90.860  1.00  0.00    -0.274 OA
ATOM      5  C   UNL     1      97.531 108.046  91.171  1.00  0.00     0.228 C 
ATOM      6  H   UNL     1      97.823 107.297  89.357  1.00  0.00     0.163 HD
BRANCH   5   7
ATOM      7  C   UNL     1      96.885 107.873  92.552  1.00  0.00     0.115 C 
ATOM      8  C   UNL     1      97.200 109.102  93.436  1.00  0.00     0.102 C 
ATOM      9  C   UNL     1      97.396 106.609  93.205  1.00  0.00    -0.007 C 
ATOM     10  N   UNL     1      96.804 108.956  94.852  1.00  0.00    -0.298 NA
ATOM     11  C   UNL     1      97.687 106.570  94.518  1.00  0.00    -0.026 C 
ATOM     12  C   UNL     1      97.471 107.780  95.470  1.00  0.00     0.091 C 
ATOM     13  C   UNL     1      98.348 105.398  95.134  1.00  0.00    -0.011 A 
ATOM     14  C   UNL     1      98.802 108.220  96.185  1.00  0.00     0.061 C 
ATOM     15  C   UNL     1      99.200 105.739  96.198  1.00  0.00     0.010 A 
ATOM     16  C   UNL     1      98.255 104.050  94.784  1.00  0.00     0.009 A 
ATOM     17  C   UNL     1      99.480 107.013  96.753  1.00  0.00    -0.020 A 
ATOM     18  C   UNL     1      99.927 104.782  96.885  1.00  0.00     0.046 A 
ATOM     19  C   UNL     1      98.991 103.085  95.488  1.00  0.00     0.003 A 
ATOM     20  C   UNL     1     100.382 106.818  97.773  1.00  0.00     0.087 A 
ATOM     21  N   UNL     1     100.646 105.465  97.842  1.00  0.00    -0.361 N 
ATOM     22  C   UNL     1      99.844 103.428  96.551  1.00  0.00     0.027 A 
ATOM     23  C   UNL     1      95.352 108.883  95.005  1.00  0.00     0.106 C 
ATOM     24  H   UNL     1     101.279 105.033  98.501  1.00  0.00     0.166 HD
ENDBRANCH   5   7
ENDBRANCH   1   3
BRANCH   1  25
ATOM     25  C   UNL     1      94.981 106.535  89.893  1.00  0.00     0.180 C 
BRANCH  25  26
ATOM     26  O   UNL     1      94.022 106.032  90.814  1.00  0.00    -0.394 OA
ATOM     27  H   UNL     1      93.272 105.695  90.292  1.00  0.00     0.210 HD
ENDBRANCH  25  26
ENDBRANCH   1  25
TORSDOF 4
ENDMDL
MODEL 9
REMARK VINA RESULT:    -7.297      2.696      4.720
REMARK INTER + INTRA:          -9.274
REMARK INTER:                  -8.861
REMARK INTRA:                  -0.413
REMARK UNBOUND:                -0.483
REMARK SMILES C[C@@H](CO)NC(=O)[C@@H]1C=C2c3cccc4[nH]cc(c34)C[C@H]2N(C)C1
REMARK SMILES IDX 2 1 1 2 5 3 7 4 6 5 8 7 24 8 9 9 22 10 10 11 21 12 11 13
REMARK SMILES IDX 20 14 19 15 12 16 18 17 15 18 13 19 17 20 16 21 14 22 23 23
REMARK SMILES IDX 3 25 4 26
REMARK H PARENT 5 6 16 24 4 27
ROOT
ATOM      1  C   UNL     1      98.506 106.496  95.823  1.00  0.00     0.104 C 
ATOM      2  C   UNL     1      99.979 106.813  96.083  1.00  0.00     0.033 C 
ENDROOT
BRANCH   1   3
ATOM      3  N   UNL     1      98.108 107.038  94.525  1.00  0.00    -0.351 N 
ATOM      4  O   UNL     1      96.787 108.156  93.124  1.00  0.00    -0.274 OA
ATOM      5  C   UNL     1      97.220 108.052  94.271  1.00  0.00     0.228 C 
ATOM      6  H   UNL     1      98.258 106.458  93.707  1.00  0.00     0.163 HD
BRANCH   5   7
ATOM      7  C   UNL     1      96.842 109.012  95.406  1.00  0.00     0.115 C 
ATOM      8  C   UNL     1      95.303 109.059  95.563  1.00  0.00     0.102 C 
ATOM      9  C   UNL     1      97.384 110.393  95.116  1.00  0.00    -0.007 C 
ATOM     10  N   UNL     1      94.813 110.102  96.485  1.00  0.00    -0.298 NA
ATOM     11  C   UNL     1      96.662 111.497  95.380  1.00  0.00    -0.026 C 
ATOM     12  C   UNL     1      95.258 111.451  96.045  1.00  0.00     0.091 C 
ATOM     13  C   UNL     1      97.105 112.840  94.944  1.00  0.00    -0.011 A 
ATOM     14  C   UNL     1      94.152 112.126  95.151  1.00  0.00     0.061 C 
ATOM     15  C   UNL     1      96.040 113.697  94.621  1.00  0.00     0.010 A 
ATOM     16  C   UNL     1      98.403 113.332  94.794  1.00  0.00     0.009 A 
ATOM     17  C   UNL     1      94.645 113.458  94.679  1.00  0.00    -0.020 A 
ATOM     18  C   UNL     1      96.255 114.987  94.169  1.00  0.00     0.046 A 
ATOM     19  C   UNL     1      98.613 114.642  94.339  1.00  0.00     0.003 A 
ATOM     20  C   UNL     1      94.021 114.609  94.256  1.00  0.00     0.087 A 
ATOM     21  N   UNL     1      95.005 115.526  93.949  1.00  0.00    -0.361 N 
ATOM     22  C   UNL     1      97.546 115.499  94.016  1.00  0.00     0.027 A 
ATOM     23  C   UNL     1      95.213 109.836  97.867  1.00  0.00     0.106 C 
ATOM     24  H   UNL     1      94.837 116.462  93.608  1.00  0.00     0.166 HD
ENDBRANCH   5   7
ENDBRANCH   1   3
BRANCH   1  25
ATOM     25  C   UNL     1      98.244 104.981  95.892  1.00  0.00     0.180 C 
BRANCH  25  26
ATOM     26  O   UNL     1      99.166 104.354  96.774  1.00  0.00    -0.394 OA
ATOM     27  H   UNL     1      98.644 103.917  97.471  1.00  0.00     0.210 HD
ENDBRANCH  25  26
ENDBRANCH   1  25
TORSDOF 4
ENDMDL
MODEL 10
REMARK VINA RESULT:    -7.197      3.869      6.045
REMARK INTER + INTRA:          -9.153
REMARK INTER:                  -8.716
REMARK INTRA:                  -0.437
REMARK UNBOUND:                -0.483
REMARK SMILES C[C@@H](CO)NC(=O)[C@@H]1C=C2c3cccc4[nH]cc(c34)C[C@H]2N(C)C1
REMARK SMILES IDX 2 1 1 2 5 3 7 4 6 5 8 7 24 8 9 9 22 10 10 11 21 12 11 13
REMARK SMILES IDX 20 14 19 15 12 16 18 17 15 18 13 19 17 20 16 21 14 22 23 23
REMARK SMILES IDX 3 25 4 26
REMARK H PARENT 5 6 16 24 4 27
ROOT
ATOM      1  C   UNL     1     101.291 105.385  97.911  1.00  0.00     0.104 C 
ATOM      2  C   UNL     1     101.388 103.981  97.316  1.00  0.00     0.033 C 
ENDROOT
BRANCH   1   3
ATOM      3  N   UNL     1     100.093 105.485  98.744  1.00  0.00    -0.351 N 
ATOM      4  O   UNL     1      98.588 106.545  99.996  1.00  0.00    -0.274 OA
ATOM      5  C   UNL     1      99.367 106.608  99.045  1.00  0.00     0.228 C 
ATOM      6  H   UNL     1      99.917 104.736  99.404  1.00  0.00     0.163 HD
BRANCH   5   7
ATOM      7  C   UNL     1      99.534 107.859  98.173  1.00  0.00     0.115 C 
ATOM      8  C   UNL     1      99.028 109.104  98.940  1.00  0.00     0.102 C 
ATOM      9  C   UNL     1      98.771 107.692  96.879  1.00  0.00    -0.007 C 
ATOM     10  N   UNL     1      98.949 110.334  98.126  1.00  0.00    -0.298 NA
ATOM     11  C   UNL     1      98.080 108.712  96.338  1.00  0.00    -0.026 C 
ATOM     12  C   UNL     1      98.055 110.138  96.955  1.00  0.00     0.091 C 
ATOM     13  C   UNL     1      97.192 108.518  95.170  1.00  0.00    -0.011 A 
ATOM     14  C   UNL     1      96.595 110.614  97.298  1.00  0.00     0.061 C 
ATOM     15  C   UNL     1      96.070 109.363  95.182  1.00  0.00     0.010 A 
ATOM     16  C   UNL     1      97.313 107.614  94.113  1.00  0.00     0.009 A 
ATOM     17  C   UNL     1      95.704 110.359  96.122  1.00  0.00    -0.020 A 
ATOM     18  C   UNL     1      95.110 109.313  94.186  1.00  0.00     0.046 A 
ATOM     19  C   UNL     1      96.338 107.572  93.105  1.00  0.00     0.003 A 
ATOM     20  C   UNL     1      94.517 110.903  95.690  1.00  0.00     0.087 A 
ATOM     21  N   UNL     1      94.167 110.262  94.519  1.00  0.00    -0.361 N 
ATOM     22  C   UNL     1      95.215 108.418  93.119  1.00  0.00     0.027 A 
ATOM     23  C   UNL     1     100.274 110.796  97.711  1.00  0.00     0.106 C 
ATOM     24  H   UNL     1      93.335 110.458  93.979  1.00  0.00     0.166 HD
ENDBRANCH   5   7
ENDBRANCH   1   3
BRANCH   1  25
ATOM     25  C   UNL     1     102.555 105.736  98.717  1.00  0.00     0.180 C 
BRANCH  25  26
ATOM     26  O   UNL     1     103.054 107.010  98.334  1.00  0.00    -0.394 OA
ATOM     27  H   UNL     1     102.835 107.133  97.393  1.00  0.00     0.210 HD
ENDBRANCH  25  26
ENDBRANCH   1  25
TORSDOF 4
ENDMDL
MODEL 11
REMARK VINA RESULT:    -7.191      3.388      6.662
REMARK INTER + INTRA:          -9.145
REMARK INTER:                  -8.677
REMARK INTRA:                  -0.469
REMARK UNBOUND:                -0.483
REMARK SMILES C[C@@H](CO)NC(=O)[C@@H]1C=C2c3cccc4[nH]cc(c34)C[C@H]2N(C)C1
REMARK SMILES IDX 2 1 1 2 5 3 7 4 6 5 8 7 24 8 9 9 22 10 10 11 21 12 11 13
REMARK SMILES IDX 20 14 19 15 12 16 18 17 15 18 13 19 17 20 16 21 14 22 23 23
REMARK SMILES IDX 3 25 4 26
REMARK H PARENT 5 6 16 24 4 27
ROOT
ATOM      1  C   UNL     1      94.134 113.943  95.407  1.00  0.00     0.104 C 
ATOM      2  C   UNL     1      94.058 113.536  93.936  1.00  0.00     0.033 C 
ENDROOT
BRANCH   1   3
ATOM      3  N   UNL     1      95.514 113.840  95.876  1.00  0.00    -0.351 N 
ATOM      4  O   UNL     1      97.147 113.110  97.203  1.00  0.00    -0.274 OA
ATOM      5  C   UNL     1      96.066 112.865  96.667  1.00  0.00     0.228 C 
ATOM      6  H   UNL     1      96.074 114.686  95.878  1.00  0.00     0.163 HD
BRANCH   5   7
ATOM      7  C   UNL     1      95.335 111.524  96.815  1.00  0.00     0.115 C 
ATOM      8  C   UNL     1      95.666 110.896  98.190  1.00  0.00     0.102 C 
ATOM      9  C   UNL     1      95.740 110.590  95.698  1.00  0.00    -0.007 C 
ATOM     10  N   UNL     1      95.185 109.511  98.361  1.00  0.00    -0.298 NA
ATOM     11  C   UNL     1      95.954 109.281  95.924  1.00  0.00    -0.026 C 
ATOM     12  C   UNL     1      95.751 108.619  97.316  1.00  0.00     0.091 C 
ATOM     13  C   UNL     1      96.515 108.393  94.882  1.00  0.00    -0.011 A 
ATOM     14  C   UNL     1      97.062 107.924  97.841  1.00  0.00     0.061 C 
ATOM     15  C   UNL     1      97.323 107.369  95.404  1.00  0.00     0.010 A 
ATOM     16  C   UNL     1      96.368 108.461  93.495  1.00  0.00     0.009 A 
ATOM     17  C   UNL     1      97.640 107.074  96.754  1.00  0.00    -0.020 A 
ATOM     18  C   UNL     1      97.957 106.452  94.585  1.00  0.00     0.046 A 
ATOM     19  C   UNL     1      97.010 107.525  92.671  1.00  0.00     0.003 A 
ATOM     20  C   UNL     1      98.471 105.978  96.741  1.00  0.00     0.087 A 
ATOM     21  N   UNL     1      98.657 105.611  95.424  1.00  0.00    -0.361 N 
ATOM     22  C   UNL     1      97.820 106.501  93.195  1.00  0.00     0.027 A 
ATOM     23  C   UNL     1      93.724 109.443  98.383  1.00  0.00     0.106 C 
ATOM     24  H   UNL     1      99.227 104.837  95.115  1.00  0.00     0.166 HD
ENDBRANCH   5   7
ENDBRANCH   1   3
BRANCH   1  25
ATOM     25  C   UNL     1      93.583 115.365  95.620  1.00  0.00     0.180 C 
BRANCH  25  26
ATOM     26  O   UNL     1      92.168 115.378  95.484  1.00  0.00    -0.394 OA
ATOM     27  H   UNL     1      91.845 116.184  95.924  1.00  0.00     0.210 HD
ENDBRANCH  25  26
ENDBRANCH   1  25
TORSDOF 4
ENDMDL
MODEL 12
REMARK VINA RESULT:    -7.186      1.727      2.195
REMARK INTER + INTRA:          -9.139
REMARK INTER:                  -8.902
REMARK INTRA:                  -0.237
REMARK UNBOUND:                -0.483
REMARK SMILES C[C@@H](CO)NC(=O)[C@@H]1C=C2c3cccc4[nH]cc(c34)C[C@H]2N(C)C1
REMARK SMILES IDX 2 1 1 2 5 3 7 4 6 5 8 7 24 8 9 9 22 10 10 11 21 12 11 13
REMARK SMILES IDX 20 14 19 15 12 16 18 17 15 18 13 19 17 20 16 21 14 22 23 23
REMARK SMILES IDX 3 25 4 26
REMARK H PARENT 5 6 16 24 4 27
ROOT
ATOM      1  C   UNL     1      96.719 107.172  92.454  1.00  0.00     0.104 C 
ATOM      2  C   UNL     1      95.629 107.893  91.662  1.00  0.00     0.033 C 
ENDROOT
BRANCH   1   3
ATOM      3  N   UNL     1      96.111 106.386  93.526  1.00  0.00    -0.351 N 
ATOM      4  O   UNL     1      96.096 105.275  95.456  1.00  0.00    -0.274 OA
ATOM      5  C   UNL     1      96.572 106.205  94.805  1.00  0.00     0.228 C 
ATOM      6  H   UNL     1      95.445 105.668  93.263  1.00  0.00     0.163 HD
BRANCH   5   7
ATOM      7  C   UNL     1      97.619 107.178  95.364  1.00  0.00     0.115 C 
ATOM      8  C   UNL     1      98.003 106.763  96.804  1.00  0.00     0.102 C 
ATOM      9  C   UNL     1      97.073 108.587  95.349  1.00  0.00    -0.007 C 
ATOM     10  N   UNL     1      98.849 107.742  97.517  1.00  0.00    -0.298 NA
ATOM     11  C   UNL     1      97.301 109.435  96.368  1.00  0.00    -0.026 C 
ATOM     12  C   UNL     1      98.176 109.065  97.598  1.00  0.00     0.091 C 
ATOM     13  C   UNL     1      96.632 110.753  96.447  1.00  0.00    -0.011 A 
ATOM     14  C   UNL     1      97.384 109.192  98.952  1.00  0.00     0.061 C 
ATOM     15  C   UNL     1      96.370 111.162  97.766  1.00  0.00     0.010 A 
ATOM     16  C   UNL     1      96.222 111.596  95.413  1.00  0.00     0.009 A 
ATOM     17  C   UNL     1      96.674 110.510  98.986  1.00  0.00    -0.020 A 
ATOM     18  C   UNL     1      95.729 112.356  98.044  1.00  0.00     0.046 A 
ATOM     19  C   UNL     1      95.576 112.807  95.702  1.00  0.00     0.003 A 
ATOM     20  C   UNL     1      96.207 111.314 100.000  1.00  0.00     0.087 A 
ATOM     21  N   UNL     1      95.636 112.428  99.418  1.00  0.00    -0.361 N 
ATOM     22  C   UNL     1      95.314 113.214  97.022  1.00  0.00     0.027 A 
ATOM     23  C   UNL     1     100.175 107.858  96.910  1.00  0.00     0.106 C 
ATOM     24  H   UNL     1      95.208 113.190  99.925  1.00  0.00     0.166 HD
ENDBRANCH   5   7
ENDBRANCH   1   3
BRANCH   1  25
ATOM     25  C   UNL     1      97.576 106.282  91.535  1.00  0.00     0.180 C 
BRANCH  25  26
ATOM     26  O   UNL     1      96.819 105.176  91.062  1.00  0.00    -0.394 OA
ATOM     27  H   UNL     1      95.881 105.378  91.232  1.00  0.00     0.210 HD
ENDBRANCH  25  26
ENDBRANCH   1  25
TORSDOF 4
ENDMDL
MODEL 13
REMARK VINA RESULT:    -7.177      3.721      6.015
REMARK INTER + INTRA:          -9.128
REMARK INTER:                  -8.635
REMARK INTRA:                  -0.493
REMARK UNBOUND:                -0.483
REMARK SMILES C[C@@H](CO)NC(=O)[C@@H]1C=C2c3cccc4[nH]cc(c34)C[C@H]2N(C)C1
REMARK SMILES IDX 2 1 1 2 5 3 7 4 6 5 8 7 24 8 9 9 22 10 10 11 21 12 11 13
REMARK SMILES IDX 20 14 19 15 12 16 18 17 15 18 13 19 17 20 16 21 14 22 23 23
REMARK SMILES IDX 3 25 4 26
REMARK H PARENT 5 6 16 24 4 27
ROOT
ATOM      1  C   UNL     1      99.490 104.041  99.917  1.00  0.00     0.104 C 
ATOM      2  C   UNL     1      99.113 104.368 101.362  1.00  0.00     0.033 C 
ENDROOT
BRANCH   1   3
ATOM      3  N   UNL     1     100.366 105.085  99.389  1.00  0.00    -0.351 N 
ATOM      4  O   UNL     1     101.111 106.505  97.844  1.00  0.00    -0.274 OA
ATOM      5  C   UNL     1     100.143 105.913  98.319  1.00  0.00     0.228 C 
ATOM      6  H   UNL     1     101.351 105.036  99.625  1.00  0.00     0.163 HD
BRANCH   5   7
ATOM      7  C   UNL     1      98.710 106.082  97.795  1.00  0.00     0.115 C 
ATOM      8  C   UNL     1      98.728 106.216  96.254  1.00  0.00     0.102 C 
ATOM      9  C   UNL     1      98.073 107.300  98.423  1.00  0.00    -0.007 C 
ATOM     10  N   UNL     1      97.430 106.588  95.657  1.00  0.00    -0.298 NA
ATOM     11  C   UNL     1      97.293 108.129  97.704  1.00  0.00    -0.026 C 
ATOM     12  C   UNL     1      96.942 107.878  96.211  1.00  0.00     0.091 C 
ATOM     13  C   UNL     1      96.805 109.412  98.257  1.00  0.00    -0.011 A 
ATOM     14  C   UNL     1      97.385 109.072  95.287  1.00  0.00     0.061 C 
ATOM     15  C   UNL     1      96.679 110.420  97.287  1.00  0.00     0.010 A 
ATOM     16  C   UNL     1      96.493 109.739  99.578  1.00  0.00     0.009 A 
ATOM     17  C   UNL     1      96.927 110.362  95.893  1.00  0.00    -0.020 A 
ATOM     18  C   UNL     1      96.259 111.697  97.614  1.00  0.00     0.046 A 
ATOM     19  C   UNL     1      96.064 111.035  99.901  1.00  0.00     0.003 A 
ATOM     20  C   UNL     1      96.660 111.612  95.384  1.00  0.00     0.087 A 
ATOM     21  N   UNL     1      96.258 112.411  96.435  1.00  0.00    -0.361 N 
ATOM     22  C   UNL     1      95.939 112.043  98.929  1.00  0.00     0.027 A 
ATOM     23  C   UNL     1      96.434 105.530  95.820  1.00  0.00     0.106 C 
ATOM     24  H   UNL     1      96.000 113.385  96.354  1.00  0.00     0.166 HD
ENDBRANCH   5   7
ENDBRANCH   1   3
BRANCH   1  25
ATOM     25  C   UNL     1     100.157 102.657  99.816  1.00  0.00     0.180 C 
BRANCH  25  26
ATOM     26  O   UNL     1     100.340 102.289  98.455  1.00  0.00    -0.394 OA
ATOM     27  H   UNL     1      99.818 102.911  97.918  1.00  0.00     0.210 HD
ENDBRANCH  25  26
ENDBRANCH   1  25
TORSDOF 4
ENDMDL
MODEL 14
REMARK VINA RESULT:    -7.134      5.456      6.774
REMARK INTER + INTRA:          -9.077
REMARK INTER:                  -9.203
REMARK INTRA:                   0.125
REMARK UNBOUND:                -0.483
REMARK SMILES C[C@@H](CO)NC(=O)[C@@H]1C=C2c3cccc4[nH]cc(c34)C[C@H]2N(C)C1
REMARK SMILES IDX 2 1 1 2 5 3 7 4 6 5 8 7 24 8 9 9 22 10 10 11 21 12 11 13
REMARK SMILES IDX 20 14 19 15 12 16 18 17 15 18 13 19 17 20 16 21 14 22 23 23
REMARK SMILES IDX 3 25 4 26
REMARK H PARENT 5 6 16 24 4 27
ROOT
ATOM      1  C   UNL     1     100.007 102.811  99.218  1.00  0.00     0.104 C 
ATOM      2  C   UNL     1      99.028 103.228  98.121  1.00  0.00     0.033 C 
ENDROOT
BRANCH   1   3
ATOM      3  N   UNL     1      99.788 103.629 100.410  1.00  0.00    -0.351 N 
ATOM      4  O   UNL     1      99.977 105.458 101.666  1.00  0.00    -0.274 OA
ATOM      5  C   UNL     1      99.896 104.990 100.530  1.00  0.00     0.228 C 
ATOM      6  H   UNL     1      99.838 103.168 101.312  1.00  0.00     0.163 HD
BRANCH   5   7
ATOM      7  C   UNL     1      99.877 105.854  99.262  1.00  0.00     0.115 C 
ATOM      8  C   UNL     1     101.125 106.767  99.231  1.00  0.00     0.102 C 
ATOM      9  C   UNL     1      98.615 106.684  99.222  1.00  0.00    -0.007 C 
ATOM     10  N   UNL     1     101.112 107.787  98.163  1.00  0.00    -0.298 NA
ATOM     11  C   UNL     1      98.633 107.963  98.804  1.00  0.00    -0.026 C 
ATOM     12  C   UNL     1      99.919 108.665  98.284  1.00  0.00     0.091 C 
ATOM     13  C   UNL     1      97.445 108.837  98.922  1.00  0.00    -0.011 A 
ATOM     14  C   UNL     1     100.271 109.954  99.115  1.00  0.00     0.061 C 
ATOM     15  C   UNL     1      97.769 110.184  99.156  1.00  0.00     0.010 A 
ATOM     16  C   UNL     1      96.092 108.497  98.859  1.00  0.00     0.009 A 
ATOM     17  C   UNL     1      99.043 110.796  99.266  1.00  0.00    -0.020 A 
ATOM     18  C   UNL     1      96.792 111.151  99.320  1.00  0.00     0.046 A 
ATOM     19  C   UNL     1      95.108 109.483  99.021  1.00  0.00     0.003 A 
ATOM     20  C   UNL     1      98.827 112.134  99.502  1.00  0.00     0.087 A 
ATOM     21  N   UNL     1      97.463 112.336  99.533  1.00  0.00    -0.361 N 
ATOM     22  C   UNL     1      95.434 110.830  99.256  1.00  0.00     0.027 A 
ATOM     23  C   UNL     1     101.192 107.182  96.834  1.00  0.00     0.106 C 
ATOM     24  H   UNL     1      97.014 113.228  99.692  1.00  0.00     0.166 HD
ENDBRANCH   5   7
ENDBRANCH   1   3
BRANCH   1  25
ATOM     25  C   UNL     1      99.871 101.313  99.544  1.00  0.00     0.180 C 
BRANCH  25  26
ATOM     26  O   UNL     1      98.834 100.725  98.770  1.00  0.00    -0.394 OA
ATOM     27  H   UNL     1      99.157  99.856  98.471  1.00  0.00     0.210 HD
ENDBRANCH  25  26
ENDBRANCH   1  25
TORSDOF 4
ENDMDL
MODEL 15
REMARK VINA RESULT:    -7.110      3.612      4.851
REMARK INTER + INTRA:          -9.048
REMARK INTER:                  -8.617
REMARK INTRA:                  -0.431
REMARK UNBOUND:                -0.483
REMARK SMILES C[C@@H](CO)NC(=O)[C@@H]1C=C2c3cccc4[nH]cc(c34)C[C@H]2N(C)C1
REMARK SMILES IDX 2 1 1 2 5 3 7 4 6 5 8 7 24 8 9 9 22 10 10 11 21 12 11 13
REMARK SMILES IDX 20 14 19 15 12 16 18 17 15 18 13 19 17 20 16 21 14 22 23 23
REMARK SMILES IDX 3 25 4 26
REMARK H PARENT 5 6 16 24 4 27
ROOT
ATOM      1  C   UNL     1      99.049 102.074  93.854  1.00  0.00     0.104 C 
ATOM      2  C   UNL     1      98.314 102.926  92.819  1.00  0.00     0.033 C 
ENDROOT
BRANCH   1   3
ATOM      3  N   UNL     1      98.260 102.002  95.082  1.00  0.00    -0.351 N 
ATOM      4  O   UNL     1      97.911 102.203  97.272  1.00  0.00    -0.274 OA
ATOM      5  C   UNL     1      98.504 102.624  96.279  1.00  0.00     0.228 C 
ATOM      6  H   UNL     1      97.631 101.214  95.190  1.00  0.00     0.163 HD
BRANCH   5   7
ATOM      7  C   UNL     1      99.466 103.819  96.315  1.00  0.00     0.115 C 
ATOM      8  C   UNL     1      99.903 104.096  97.773  1.00  0.00     0.102 C 
ATOM      9  C   UNL     1      98.795 105.038  95.725  1.00  0.00    -0.007 C 
ATOM     10  N   UNL     1     100.666 105.347  97.956  1.00  0.00    -0.298 NA
ATOM     11  C   UNL     1      98.958 106.258  96.271  1.00  0.00    -0.026 C 
ATOM     12  C   UNL     1      99.877 106.521  97.496  1.00  0.00     0.091 C 
ATOM     13  C   UNL     1      98.175 107.426  95.812  1.00  0.00    -0.011 A 
ATOM     14  C   UNL     1      99.094 107.158  98.703  1.00  0.00     0.061 C 
ATOM     15  C   UNL     1      97.893 108.342  96.839  1.00  0.00     0.010 A 
ATOM     16  C   UNL     1      97.678 107.707  94.538  1.00  0.00     0.009 A 
ATOM     17  C   UNL     1      98.269 108.304  98.205  1.00  0.00    -0.020 A 
ATOM     18  C   UNL     1      97.150 109.487  96.611  1.00  0.00     0.046 A 
ATOM     19  C   UNL     1      96.929 108.872  94.313  1.00  0.00     0.003 A 
ATOM     20  C   UNL     1      97.743 109.429  98.798  1.00  0.00     0.087 A 
ATOM     21  N   UNL     1      97.068 110.136  97.825  1.00  0.00    -0.361 N 
ATOM     22  C   UNL     1      96.647 109.787  95.343  1.00  0.00     0.027 A 
ATOM     23  C   UNL     1     101.968 105.291  97.293  1.00  0.00     0.106 C 
ATOM     24  H   UNL     1      96.579 111.007  97.977  1.00  0.00     0.166 HD
ENDBRANCH   5   7
ENDBRANCH   1   3
BRANCH   1  25
ATOM     25  C   UNL     1      99.347 100.667  93.305  1.00  0.00     0.180 C 
BRANCH  25  26
ATOM     26  O   UNL     1      98.989  99.674  94.257  1.00  0.00    -0.394 OA
ATOM     27  H   UNL     1      98.282  99.136  93.858  1.00  0.00     0.210 HD
ENDBRANCH  25  26
ENDBRANCH   1  25
TORSDOF 4
ENDMDL
MODEL 16
REMARK VINA RESULT:    -7.044      4.945      7.370
REMARK INTER + INTRA:          -8.969
REMARK INTER:                  -8.786
REMARK INTRA:                  -0.183
REMARK UNBOUND:                -0.483
REMARK SMILES C[C@@H](CO)NC(=O)[C@@H]1C=C2c3cccc4[nH]cc(c34)C[C@H]2N(C)C1
REMARK SMILES IDX 2 1 1 2 5 3 7 4 6 5 8 7 24 8 9 9 22 10 10 11 21 12 11 13
REMARK SMILES IDX 20 14 19 15 12 16 18 17 15 18 13 19 17 20 16 21 14 22 23 23
REMARK SMILES IDX 3 25 4 26
REMARK H PARENT 5 6 16 24 4 27
ROOT
ATOM      1  C   UNL     1     100.560 105.165 101.729  1.00  0.00     0.104 C 
ATOM      2  C   UNL     1     100.829 106.033 102.957  1.00  0.00     0.033 C 
ENDROOT
BRANCH   1   3
ATOM      3  N   UNL     1     101.536 105.472 100.685  1.00  0.00    -0.351 N 
ATOM      4  O   UNL     1     102.477 105.268  98.677  1.00  0.00    -0.274 OA
ATOM      5  C   UNL     1     101.442 105.221  99.341  1.00  0.00     0.228 C 
ATOM      6  H   UNL     1     102.497 105.624 100.972  1.00  0.00     0.163 HD
BRANCH   5   7
ATOM      7  C   UNL     1     100.063 104.930  98.733  1.00  0.00     0.115 C 
ATOM      8  C   UNL     1     100.210 104.622  97.224  1.00  0.00     0.102 C 
ATOM      9  C   UNL     1      99.147 106.114  98.943  1.00  0.00    -0.007 C 
ATOM     10  N   UNL     1      98.931 104.528  96.491  1.00  0.00    -0.298 NA
ATOM     11  C   UNL     1      98.301 106.522  97.979  1.00  0.00    -0.026 C 
ATOM     12  C   UNL     1      98.155 105.790  96.616  1.00  0.00     0.091 C 
ATOM     13  C   UNL     1      97.527 107.777  98.104  1.00  0.00    -0.011 A 
ATOM     14  C   UNL     1      98.455 106.738  95.396  1.00  0.00     0.061 C 
ATOM     15  C   UNL     1      97.310 108.418  96.872  1.00  0.00     0.010 A 
ATOM     16  C   UNL     1      97.027 108.392  99.253  1.00  0.00     0.009 A 
ATOM     17  C   UNL     1      97.703 108.020  95.570  1.00  0.00    -0.020 A 
ATOM     18  C   UNL     1      96.627 109.618  96.787  1.00  0.00     0.046 A 
ATOM     19  C   UNL     1      96.331 109.607  99.158  1.00  0.00     0.003 A 
ATOM     20  C   UNL     1      97.258 108.990  94.702  1.00  0.00     0.087 A 
ATOM     21  N   UNL     1      96.609 109.951  95.449  1.00  0.00    -0.361 N 
ATOM     22  C   UNL     1      96.116 110.248  97.925  1.00  0.00     0.027 A 
ATOM     23  C   UNL     1      98.141 103.375  96.923  1.00  0.00     0.106 C 
ATOM     24  H   UNL     1      96.181 110.786  95.072  1.00  0.00     0.166 HD
ENDBRANCH   5   7
ENDBRANCH   1   3
BRANCH   1  25
ATOM     25  C   UNL     1     100.589 103.668 102.089  1.00  0.00     0.180 C 
BRANCH  25  26
ATOM     26  O   UNL     1     101.332 103.456 103.282  1.00  0.00    -0.394 OA
ATOM     27  H   UNL     1     100.694 103.432 104.017  1.00  0.00     0.210 HD
ENDBRANCH  25  26
ENDBRANCH   1  25
TORSDOF 4
ENDMDL
MODEL 17
REMARK VINA RESULT:    -6.965      3.956      6.683
REMARK INTER + INTRA:          -8.873
REMARK INTER:                  -9.099
REMARK INTRA:                   0.226
REMARK UNBOUND:                -0.483
REMARK SMILES C[C@@H](CO)NC(=O)[C@@H]1C=C2c3cccc4[nH]cc(c34)C[C@H]2N(C)C1
REMARK SMILES IDX 2 1 1 2 5 3 7 4 6 5 8 7 24 8 9 9 22 10 10 11 21 12 11 13
REMARK SMILES IDX 20 14 19 15 12 16 18 17 15 18 13 19 17 20 16 21 14 22 23 23
REMARK SMILES IDX 3 25 4 26
REMARK H PARENT 5 6 16 24 4 27
ROOT
ATOM      1  C   UNL     1      99.835 104.633 100.121  1.00  0.00     0.104 C 
ATOM      2  C   UNL     1     101.362 104.619 100.184  1.00  0.00     0.033 C 
ENDROOT
BRANCH   1   3
ATOM      3  N   UNL     1      99.379 103.776  99.028  1.00  0.00    -0.351 N 
ATOM      4  O   UNL     1      98.341 103.332  97.109  1.00  0.00    -0.274 OA
ATOM      5  C   UNL     1      98.973 104.152  97.774  1.00  0.00     0.228 C 
ATOM      6  H   UNL     1      99.048 102.847  99.266  1.00  0.00     0.163 HD
BRANCH   5   7
ATOM      7  C   UNL     1      99.352 105.546  97.256  1.00  0.00     0.115 C 
ATOM      8  C   UNL     1      98.808 106.628  98.219  1.00  0.00     0.102 C 
ATOM      9  C   UNL     1      98.794 105.749  95.866  1.00  0.00    -0.007 C 
ATOM     10  N   UNL     1      98.933 108.012  97.718  1.00  0.00    -0.298 NA
ATOM     11  C   UNL     1      98.260 106.927  95.493  1.00  0.00    -0.026 C 
ATOM     12  C   UNL     1      98.225 108.173  96.421  1.00  0.00     0.091 C 
ATOM     13  C   UNL     1      97.557 107.087  94.200  1.00  0.00    -0.011 A 
ATOM     14  C   UNL     1      96.760 108.696  96.661  1.00  0.00     0.061 C 
ATOM     15  C   UNL     1      96.500 108.012  94.256  1.00  0.00     0.010 A 
ATOM     16  C   UNL     1      97.788 106.438  92.986  1.00  0.00     0.009 A 
ATOM     17  C   UNL     1      96.052 108.800  95.346  1.00  0.00    -0.020 A 
ATOM     18  C   UNL     1      95.708 108.280  93.154  1.00  0.00     0.046 A 
ATOM     19  C   UNL     1      96.984 106.719  91.872  1.00  0.00     0.003 A 
ATOM     20  C   UNL     1      94.983 109.539  94.895  1.00  0.00     0.087 A 
ATOM     21  N   UNL     1      94.784 109.216  93.568  1.00  0.00    -0.361 N 
ATOM     22  C   UNL     1      95.926 107.644  91.930  1.00  0.00     0.027 A 
ATOM     23  C   UNL     1     100.332 108.427  97.614  1.00  0.00     0.106 C 
ATOM     24  H   UNL     1      94.062 109.607  92.980  1.00  0.00     0.166 HD
ENDBRANCH   5   7
ENDBRANCH   1   3
BRANCH   1  25
ATOM     25  C   UNL     1      99.219 104.193 101.462  1.00  0.00     0.180 C 
BRANCH  25  26
ATOM     26  O   UNL     1     100.038 103.215 102.090  1.00  0.00    -0.394 OA
ATOM     27  H   UNL     1      99.957 103.349 103.051  1.00  0.00     0.210 HD
ENDBRANCH  25  26
ENDBRANCH   1  25
TORSDOF 4
ENDMDL
MODEL 18
REMARK VINA RESULT:    -6.946      3.523      7.340
REMARK INTER + INTRA:          -8.851
REMARK INTER:                  -8.366
REMARK INTRA:                  -0.485
REMARK UNBOUND:                -0.483
REMARK SMILES C[C@@H](CO)NC(=O)[C@@H]1C=C2c3cccc4[nH]cc(c34)C[C@H]2N(C)C1
REMARK SMILES IDX 2 1 1 2 5 3 7 4 6 5 8 7 24 8 9 9 22 10 10 11 21 12 11 13
REMARK SMILES IDX 20 14 19 15 12 16 18 17 15 18 13 19 17 20 16 21 14 22 23 23
REMARK SMILES IDX 3 25 4 26
REMARK H PARENT 5 6 16 24 4 27
ROOT
ATOM      1  C   UNL     1      96.360 111.379  98.882  1.00  0.00     0.104 C 
ATOM      2  C   UNL     1      96.865 111.958 100.203  1.00  0.00     0.033 C 
ENDROOT
BRANCH   1   3
ATOM      3  N   UNL     1      95.463 110.255  99.148  1.00  0.00    -0.351 N 
ATOM      4  O   UNL     1      94.292 108.438  98.616  1.00  0.00    -0.274 OA
ATOM      5  C   UNL     1      95.298 109.114  98.406  1.00  0.00     0.228 C 
ATOM      6  H   UNL     1      94.675 110.419  99.764  1.00  0.00     0.163 HD
BRANCH   5   7
ATOM      7  C   UNL     1      96.379 108.725  97.388  1.00  0.00     0.115 C 
ATOM      8  C   UNL     1      95.722 108.057  96.157  1.00  0.00     0.102 C 
ATOM      9  C   UNL     1      97.376 107.787  98.028  1.00  0.00    -0.007 C 
ATOM     10  N   UNL     1      96.678 107.457  95.204  1.00  0.00    -0.298 NA
ATOM     11  C   UNL     1      97.875 106.733  97.355  1.00  0.00    -0.026 C 
ATOM     12  C   UNL     1      97.519 106.430  95.873  1.00  0.00     0.091 C 
ATOM     13  C   UNL     1      98.714 105.713  98.021  1.00  0.00    -0.011 A 
ATOM     14  C   UNL     1      96.883 105.001  95.693  1.00  0.00     0.061 C 
ATOM     15  C   UNL     1      98.545 104.424  97.488  1.00  0.00     0.010 A 
ATOM     16  C   UNL     1      99.600 105.862  99.089  1.00  0.00     0.009 A 
ATOM     17  C   UNL     1      97.720 103.994  96.419  1.00  0.00    -0.020 A 
ATOM     18  C   UNL     1      99.226 103.331  97.995  1.00  0.00     0.046 A 
ATOM     19  C   UNL     1     100.291 104.750  99.595  1.00  0.00     0.003 A 
ATOM     20  C   UNL     1      97.904 102.637  96.288  1.00  0.00     0.087 A 
ATOM     21  N   UNL     1      98.816 102.247  97.247  1.00  0.00    -0.361 N 
ATOM     22  C   UNL     1     100.119 103.461  99.061  1.00  0.00     0.027 A 
ATOM     23  C   UNL     1      97.501 108.472  94.548  1.00  0.00     0.106 C 
ATOM     24  H   UNL     1      99.140 101.300  97.386  1.00  0.00     0.166 HD
ENDBRANCH   5   7
ENDBRANCH   1   3
BRANCH   1  25
ATOM     25  C   UNL     1      95.658 112.457  98.035  1.00  0.00     0.180 C 
BRANCH  25  26
ATOM     26  O   UNL     1      95.696 112.111  96.657  1.00  0.00    -0.394 OA
ATOM     27  H   UNL     1      95.415 112.898  96.156  1.00  0.00     0.210 HD
ENDBRANCH  25  26
ENDBRANCH   1  25
TORSDOF 4
ENDMDL
MODEL 19
REMARK VINA RESULT:    -6.923      6.016      8.795
REMARK INTER + INTRA:          -8.823
REMARK INTER:                  -8.412
REMARK INTRA:                  -0.411
REMARK UNBOUND:                -0.483
REMARK SMILES C[C@@H](CO)NC(=O)[C@@H]1C=C2c3cccc4[nH]cc(c34)C[C@H]2N(C)C1
REMARK SMILES IDX 2 1 1 2 5 3 7 4 6 5 8 7 24 8 9 9 22 10 10 11 21 12 11 13
REMARK SMILES IDX 20 14 19 15 12 16 18 17 15 18 13 19 17 20 16 21 14 22 23 23
REMARK SMILES IDX 3 25 4 26
REMARK H PARENT 5 6 16 24 4 27
ROOT
ATOM      1  C   UNL     1     100.967 111.010  98.682  1.00  0.00     0.104 C 
ATOM      2  C   UNL     1     101.495 111.635  99.973  1.00  0.00     0.033 C 
ENDROOT
BRANCH   1   3
ATOM      3  N   UNL     1      99.690 110.348  98.942  1.00  0.00    -0.351 N 
ATOM      4  O   UNL     1      98.173 108.733  98.728  1.00  0.00    -0.274 OA
ATOM      5  C   UNL     1      99.367 109.031  98.745  1.00  0.00     0.228 C 
ATOM      6  H   UNL     1      98.863 110.932  99.003  1.00  0.00     0.163 HD
BRANCH   5   7
ATOM      7  C   UNL     1     100.496 108.003  98.590  1.00  0.00     0.115 C 
ATOM      8  C   UNL     1     100.229 107.113  97.353  1.00  0.00     0.102 C 
ATOM      9  C   UNL     1     100.595 107.155  99.837  1.00  0.00    -0.007 C 
ATOM     10  N   UNL     1     101.139 105.958  97.222  1.00  0.00    -0.298 NA
ATOM     11  C   UNL     1     100.826 105.831  99.766  1.00  0.00    -0.026 C 
ATOM     12  C   UNL     1     101.064 105.085  98.424  1.00  0.00     0.091 C 
ATOM     13  C   UNL     1     100.754 104.963 100.962  1.00  0.00    -0.011 A 
ATOM     14  C   UNL     1     100.023 103.927  98.193  1.00  0.00     0.061 C 
ATOM     15  C   UNL     1     100.296 103.666 100.678  1.00  0.00     0.010 A 
ATOM     16  C   UNL     1     101.049 105.271 102.292  1.00  0.00     0.009 A 
ATOM     17  C   UNL     1      99.929 103.095  99.434  1.00  0.00    -0.020 A 
ATOM     18  C   UNL     1     100.138 102.715 101.671  1.00  0.00     0.046 A 
ATOM     19  C   UNL     1     100.890 104.300 103.293  1.00  0.00     0.003 A 
ATOM     20  C   UNL     1      99.544 101.798  99.685  1.00  0.00     0.087 A 
ATOM     21  N   UNL     1      99.673 101.580 101.041  1.00  0.00    -0.361 N 
ATOM     22  C   UNL     1     100.430 103.003 103.006  1.00  0.00     0.027 A 
ATOM     23  C   UNL     1     102.514 106.378  96.956  1.00  0.00     0.106 C 
ATOM     24  H   UNL     1      99.457 100.712 101.510  1.00  0.00     0.166 HD
ENDBRANCH   5   7
ENDBRANCH   1   3
BRANCH   1  25
ATOM     25  C   UNL     1     100.826 112.067  97.571  1.00  0.00     0.180 C 
BRANCH  25  26
ATOM     26  O   UNL     1     102.072 112.706  97.328  1.00  0.00    -0.394 OA
ATOM     27  H   UNL     1     102.448 112.940  98.196  1.00  0.00     0.210 HD
ENDBRANCH  25  26
ENDBRANCH   1  25
TORSDOF 4
ENDMDL
MODEL 20
REMARK VINA RESULT:    -6.878      4.810      7.461
REMARK INTER + INTRA:          -8.768
REMARK INTER:                  -8.455
REMARK INTRA:                  -0.314
REMARK UNBOUND:                -0.483
REMARK SMILES C[C@@H](CO)NC(=O)[C@@H]1C=C2c3cccc4[nH]cc(c34)C[C@H]2N(C)C1
REMARK SMILES IDX 2 1 1 2 5 3 7 4 6 5 8 7 24 8 9 9 22 10 10 11 21 12 11 13
REMARK SMILES IDX 20 14 19 15 12 16 18 17 15 18 13 19 17 20 16 21 14 22 23 23
REMARK SMILES IDX 3 25 4 26
REMARK H PARENT 5 6 16 24 4 27
ROOT
ATOM      1  C   UNL     1      97.196 109.832  96.125  1.00  0.00     0.104 C 
ATOM      2  C   UNL     1      97.610 111.301  96.035  1.00  0.00     0.033 C 
ENDROOT
BRANCH   1   3
ATOM      3  N   UNL     1      96.734 109.533  97.480  1.00  0.00    -0.351 N 
ATOM      4  O   UNL     1      96.443 108.251  99.276  1.00  0.00    -0.274 OA
ATOM      5  C   UNL     1      97.156 108.529  98.312  1.00  0.00     0.228 C 
ATOM      6  H   UNL     1      95.828 109.896  97.758  1.00  0.00     0.163 HD
BRANCH   5   7
ATOM      7  C   UNL     1      98.493 107.834  98.023  1.00  0.00     0.115 C 
ATOM      8  C   UNL     1      98.286 106.716  96.974  1.00  0.00     0.102 C 
ATOM      9  C   UNL     1      99.063 107.261  99.300  1.00  0.00    -0.007 C 
ATOM     10  N   UNL     1      99.460 105.844  96.769  1.00  0.00    -0.298 NA
ATOM     11  C   UNL     1      99.662 106.056  99.318  1.00  0.00    -0.026 C 
ATOM     12  C   UNL     1      99.867 105.193  98.042  1.00  0.00     0.091 C 
ATOM     13  C   UNL     1     100.069 105.409 100.585  1.00  0.00    -0.011 A 
ATOM     14  C   UNL     1      99.195 103.775  98.168  1.00  0.00     0.061 C 
ATOM     15  C   UNL     1      99.975 104.007 100.546  1.00  0.00     0.010 A 
ATOM     16  C   UNL     1     100.492 105.998 101.778  1.00  0.00     0.009 A 
ATOM     17  C   UNL     1      99.578 103.163  99.479  1.00  0.00    -0.020 A 
ATOM     18  C   UNL     1     100.289 103.225 101.643  1.00  0.00     0.046 A 
ATOM     19  C   UNL     1     100.813 105.198 102.885  1.00  0.00     0.003 A 
ATOM     20  C   UNL     1      99.649 101.869  99.942  1.00  0.00     0.087 A 
ATOM     21  N   UNL     1     100.079 101.920 101.252  1.00  0.00    -0.361 N 
ATOM     22  C   UNL     1     100.717 103.796 102.844  1.00  0.00     0.027 A 
ATOM     23  C   UNL     1     100.577 106.572  96.165  1.00  0.00     0.106 C 
ATOM     24  H   UNL     1     100.220 101.114 101.846  1.00  0.00     0.166 HD
ENDBRANCH   5   7
ENDBRANCH   1   3
BRANCH   1  25
ATOM     25  C   UNL     1      96.111 109.496  95.086  1.00  0.00     0.180 C 
BRANCH  25  26
ATOM     26  O   UNL     1      95.647 108.164  95.261  1.00  0.00    -0.394 OA
ATOM     27  H   UNL     1      96.302 107.703  95.816  1.00  0.00     0.210 HD
ENDBRANCH  25  26
ENDBRANCH   1  25
TORSDOF 4
ENDMDL
