MODEL 1
REMARK VINA RESULT:    -8.852      0.000      0.000
REMARK INTER + INTRA:         -10.782
REMARK INTER:                 -10.663
REMARK INTRA:                  -0.119
REMARK UNBOUND:                -0.119
REMARK SMILES C[C@@H](CO)NC(=O)[C@@H]1C=C2c3cccc4[nH]cc(c34)C[C@H]2N(C)C1
REMARK SMILES IDX 2 1 1 2 5 3 7 4 6 5 8 7 24 8 9 9 22 10 10 11 21 12 11 13
REMARK SMILES IDX 20 14 19 15 12 16 18 17 15 18 13 19 17 20 16 21 14 22 23 23
REMARK SMILES IDX 3 25 4 26
REMARK H PARENT 5 6 16 24 4 27
ROOT
ATOM      1  C   UNL     1      99.604 114.180 111.698  1.00  0.00     0.104 C 
ATOM      2  C   UNL     1      98.690 114.278 112.919  1.00  0.00     0.033 C 
ENDROOT
BRANCH   1   3
ATOM      3  N   UNL     1     100.826 113.462 112.054  1.00  0.00    -0.351 N 
ATOM      4  O   UNL     1     102.783 112.481 111.647  1.00  0.00    -0.274 OA
ATOM      5  C   UNL     1     101.991 113.370 111.337  1.00  0.00     0.228 C 
ATOM      6  H   UNL     1     100.752 112.722 112.744  1.00  0.00     0.163 HD
BRANCH   5   7
ATOM      7  C   UNL     1     102.259 114.388 110.220  1.00  0.00     0.115 C 
ATOM      8  C   UNL     1     103.599 114.058 109.521  1.00  0.00     0.102 C 
ATOM      9  C   UNL     1     102.294 115.785 110.794  1.00  0.00    -0.007 C 
ATOM     10  N   UNL     1     104.062 115.086 108.568  1.00  0.00    -0.298 NA
ATOM     11  C   UNL     1     103.196 116.691 110.373  1.00  0.00    -0.026 C 
ATOM     12  C   UNL     1     104.223 116.401 109.243  1.00  0.00     0.091 C 
ATOM     13  C   UNL     1     103.355 118.001 111.044  1.00  0.00    -0.011 A 
ATOM     14  C   UNL     1     105.709 116.589 109.725  1.00  0.00     0.061 C 
ATOM     15  C   UNL     1     104.677 118.476 111.024  1.00  0.00     0.010 A 
ATOM     16  C   UNL     1     102.394 118.779 111.692  1.00  0.00     0.009 A 
ATOM     17  C   UNL     1     105.832 117.895 110.446  1.00  0.00    -0.020 A 
ATOM     18  C   UNL     1     105.029 119.673 111.622  1.00  0.00     0.046 A 
ATOM     19  C   UNL     1     102.758 119.994 112.292  1.00  0.00     0.003 A 
ATOM     20  C   UNL     1     106.882 118.746 110.703  1.00  0.00     0.087 A 
ATOM     21  N   UNL     1     106.385 119.817 111.416  1.00  0.00    -0.361 N 
ATOM     22  C   UNL     1     104.082 120.468 112.272  1.00  0.00     0.027 A 
ATOM     23  C   UNL     1     103.176 115.190 107.409  1.00  0.00     0.106 C 
ATOM     24  H   UNL     1     106.935 120.599 111.744  1.00  0.00     0.166 HD
ENDBRANCH   5   7
ENDBRANCH   1   3
BRANCH   1  25
ATOM     25  C   UNL     1      98.886 113.498 110.519  1.00  0.00     0.180 C 
BRANCH  25  26
ATOM     26  O   UNL     1      97.525 113.904 110.462  1.00  0.00    -0.394 OA
ATOM     27  H   UNL     1      97.030 113.333 111.077  1.00  0.00     0.210 HD
ENDBRANCH  25  26
ENDBRANCH   1  25
TORSDOF 4
ENDMDL
MODEL 2
REMARK VINA RESULT:    -8.381      3.287      5.579
REMARK INTER + INTRA:         -10.215
REMARK INTER:                  -9.736
REMARK INTRA:                  -0.479
REMARK UNBOUND:                -0.119
REMARK SMILES C[C@@H](CO)NC(=O)[C@@H]1C=C2c3cccc4[nH]cc(c34)C[C@H]2N(C)C1
REMARK SMILES IDX 2 1 1 2 5 3 7 4 6 5 8 7 24 8 9 9 22 10 10 11 21 12 11 13
REMARK SMILES IDX 20 14 19 15 12 16 18 17 15 18 13 19 17 20 16 21 14 22 23 23
REMARK SMILES IDX 3 25 4 26
REMARK H PARENT 5 6 16 24 4 27
ROOT
ATOM      1  C   UNL     1      99.300 119.288 114.420  1.00  0.00     0.104 C 
ATOM      2  C   UNL     1      98.711 117.976 114.938  1.00  0.00     0.033 C 
ENDROOT
BRANCH   1   3
ATOM      3  N   UNL     1      99.029 119.419 112.990  1.00  0.00    -0.351 N 
ATOM      4  O   UNL     1      99.521 119.937 110.881  1.00  0.00    -0.274 OA
ATOM      5  C   UNL     1      99.934 119.530 111.966  1.00  0.00     0.228 C 
ATOM      6  H   UNL     1      98.109 119.747 112.714  1.00  0.00     0.163 HD
BRANCH   5   7
ATOM      7  C   UNL     1     101.391 119.115 112.213  1.00  0.00     0.115 C 
ATOM      8  C   UNL     1     102.346 120.160 111.590  1.00  0.00     0.102 C 
ATOM      9  C   UNL     1     101.645 117.749 111.618  1.00  0.00    -0.007 C 
ATOM     10  N   UNL     1     103.769 119.763 111.586  1.00  0.00    -0.298 NA
ATOM     11  C   UNL     1     102.795 117.469 110.977  1.00  0.00    -0.026 C 
ATOM     12  C   UNL     1     103.961 118.488 110.846  1.00  0.00     0.091 C 
ATOM     13  C   UNL     1     102.987 116.198 110.243  1.00  0.00    -0.011 A 
ATOM     14  C   UNL     1     104.333 118.778 109.345  1.00  0.00     0.061 C 
ATOM     15  C   UNL     1     103.807 116.332 109.111  1.00  0.00     0.010 A 
ATOM     16  C   UNL     1     102.453 114.937 110.513  1.00  0.00     0.009 A 
ATOM     17  C   UNL     1     104.470 117.481 108.611  1.00  0.00    -0.020 A 
ATOM     18  C   UNL     1     104.085 115.259 108.282  1.00  0.00     0.046 A 
ATOM     19  C   UNL     1     102.742 113.853 109.670  1.00  0.00     0.003 A 
ATOM     20  C   UNL     1     105.142 117.095 107.475  1.00  0.00     0.087 A 
ATOM     21  N   UNL     1     104.901 115.750 107.285  1.00  0.00    -0.361 N 
ATOM     22  C   UNL     1     103.562 113.989 108.536  1.00  0.00     0.027 A 
ATOM     23  C   UNL     1     104.313 119.679 112.941  1.00  0.00     0.106 C 
ATOM     24  H   UNL     1     105.269 115.199 106.522  1.00  0.00     0.166 HD
ENDBRANCH   5   7
ENDBRANCH   1   3
BRANCH   1  25
ATOM     25  C   UNL     1      98.743 120.493 115.201  1.00  0.00     0.180 C 
BRANCH  25  26
ATOM     26  O   UNL     1      99.485 121.668 114.901  1.00  0.00    -0.394 OA
ATOM     27  H   UNL     1     100.326 121.608 115.388  1.00  0.00     0.210 HD
ENDBRANCH  25  26
ENDBRANCH   1  25
TORSDOF 4
ENDMDL
MODEL 3
REMARK VINA RESULT:    -8.333      3.123      4.743
REMARK INTER + INTRA:         -10.157
REMARK INTER:                 -10.306
REMARK INTRA:                   0.150
REMARK UNBOUND:                -0.119
REMARK SMILES C[C@@H](CO)NC(=O)[C@@H]1C=C2c3cccc4[nH]cc(c34)C[C@H]2N(C)C1
REMARK SMILES IDX 2 1 1 2 5 3 7 4 6 5 8 7 24 8 9 9 22 10 10 11 21 12 11 13
REMARK SMILES IDX 20 14 19 15 12 16 18 17 15 18 13 19 17 20 16 21 14 22 23 23
REMARK SMILES IDX 3 25 4 26
REMARK H PARENT 5 6 16 24 4 27
ROOT
ATOM      1  C   UNL     1     103.773 113.844 107.075  1.00  0.00     0.104 C 
ATOM      2  C   UNL     1     104.745 112.752 107.522  1.00  0.00     0.033 C 
ENDROOT
BRANCH   1   3
ATOM      3  N   UNL     1     104.514 115.067 106.770  1.00  0.00    -0.351 N 
ATOM      4  O   UNL     1     105.052 117.214 107.009  1.00  0.00    -0.274 OA
ATOM      5  C   UNL     1     104.661 116.182 107.554  1.00  0.00     0.228 C 
ATOM      6  H   UNL     1     104.711 115.265 105.795  1.00  0.00     0.163 HD
BRANCH   5   7
ATOM      7  C   UNL     1     104.368 116.079 109.057  1.00  0.00     0.115 C 
ATOM      8  C   UNL     1     102.891 115.678 109.276  1.00  0.00     0.102 C 
ATOM      9  C   UNL     1     104.661 117.400 109.730  1.00  0.00    -0.007 C 
ATOM     10  N   UNL     1     102.439 115.748 110.680  1.00  0.00    -0.298 NA
ATOM     11  C   UNL     1     103.857 117.887 110.693  1.00  0.00    -0.026 C 
ATOM     12  C   UNL     1     102.614 117.120 111.225  1.00  0.00     0.091 C 
ATOM     13  C   UNL     1     104.033 119.251 111.238  1.00  0.00    -0.011 A 
ATOM     14  C   UNL     1     101.287 117.948 111.057  1.00  0.00     0.061 C 
ATOM     15  C   UNL     1     102.823 119.857 111.615  1.00  0.00     0.010 A 
ATOM     16  C   UNL     1     105.206 119.993 111.391  1.00  0.00     0.009 A 
ATOM     17  C   UNL     1     101.505 119.339 111.565  1.00  0.00    -0.020 A 
ATOM     18  C   UNL     1     102.780 121.143 112.124  1.00  0.00     0.046 A 
ATOM     19  C   UNL     1     105.155 121.295 111.912  1.00  0.00     0.003 A 
ATOM     20  C   UNL     1     100.668 120.322 112.042  1.00  0.00     0.087 A 
ATOM     21  N   UNL     1     101.450 121.408 112.375  1.00  0.00    -0.361 N 
ATOM     22  C   UNL     1     103.943 121.900 112.288  1.00  0.00     0.027 A 
ATOM     23  C   UNL     1     103.112 114.755 111.517  1.00  0.00     0.106 C 
ATOM     24  H   UNL     1     101.100 122.279 112.750  1.00  0.00     0.166 HD
ENDBRANCH   5   7
ENDBRANCH   1   3
BRANCH   1  25
ATOM     25  C   UNL     1     102.940 113.386 105.865  1.00  0.00     0.180 C 
BRANCH  25  26
ATOM     26  O   UNL     1     103.595 112.326 105.180  1.00  0.00    -0.394 OA
ATOM     27  H   UNL     1     102.927 111.637 105.011  1.00  0.00     0.210 HD
ENDBRANCH  25  26
ENDBRANCH   1  25
TORSDOF 4
ENDMDL
MODEL 4
REMARK VINA RESULT:    -8.230      1.857      2.558
REMARK INTER + INTRA:         -10.033
REMARK INTER:                  -9.665
REMARK INTRA:                  -0.368
REMARK UNBOUND:                -0.119
REMARK SMILES C[C@@H](CO)NC(=O)[C@@H]1C=C2c3cccc4[nH]cc(c34)C[C@H]2N(C)C1
REMARK SMILES IDX 2 1 1 2 5 3 7 4 6 5 8 7 24 8 9 9 22 10 10 11 21 12 11 13
REMARK SMILES IDX 20 14 19 15 12 16 18 17 15 18 13 19 17 20 16 21 14 22 23 23
REMARK SMILES IDX 3 25 4 26
REMARK H PARENT 5 6 16 24 4 27
ROOT
ATOM      1  C   UNL     1     100.628 113.745 110.023  1.00  0.00     0.104 C 
ATOM      2  C   UNL     1      99.247 113.440 110.602  1.00  0.00     0.033 C 
ENDROOT
BRANCH   1   3
ATOM      3  N   UNL     1     101.615 113.790 111.101  1.00  0.00    -0.351 N 
ATOM      4  O   UNL     1     103.627 114.151 111.983  1.00  0.00    -0.274 OA
ATOM      5  C   UNL     1     102.800 114.479 111.133  1.00  0.00     0.228 C 
ATOM      6  H   UNL     1     101.599 113.039 111.784  1.00  0.00     0.163 HD
BRANCH   5   7
ATOM      7  C   UNL     1     103.018 115.630 110.142  1.00  0.00     0.115 C 
ATOM      8  C   UNL     1     104.527 115.956 110.042  1.00  0.00     0.102 C 
ATOM      9  C   UNL     1     102.244 116.848 110.588  1.00  0.00    -0.007 C 
ATOM     10  N   UNL     1     104.840 117.179 109.276  1.00  0.00    -0.298 NA
ATOM     11  C   UNL     1     102.768 118.084 110.490  1.00  0.00    -0.026 C 
ATOM     12  C   UNL     1     104.165 118.363 109.869  1.00  0.00     0.091 C 
ATOM     13  C   UNL     1     102.095 119.263 111.079  1.00  0.00    -0.011 A 
ATOM     14  C   UNL     1     105.130 119.093 110.877  1.00  0.00     0.061 C 
ATOM     15  C   UNL     1     102.994 120.239 111.542  1.00  0.00     0.010 A 
ATOM     16  C   UNL     1     100.731 119.504 111.249  1.00  0.00     0.009 A 
ATOM     17  C   UNL     1     104.410 120.249 111.499  1.00  0.00    -0.020 A 
ATOM     18  C   UNL     1     102.556 121.403 112.147  1.00  0.00     0.046 A 
ATOM     19  C   UNL     1     100.294 120.690 111.859  1.00  0.00     0.003 A 
ATOM     20  C   UNL     1     104.823 121.423 112.085  1.00  0.00     0.087 A 
ATOM     21  N   UNL     1     103.693 122.113 112.475  1.00  0.00    -0.361 N 
ATOM     22  C   UNL     1     101.195 121.665 112.323  1.00  0.00     0.027 A 
ATOM     23  C   UNL     1     104.505 117.032 107.860  1.00  0.00     0.106 C 
ATOM     24  H   UNL     1     103.694 123.011 112.937  1.00  0.00     0.166 HD
ENDBRANCH   5   7
ENDBRANCH   1   3
BRANCH   1  25
ATOM     25  C   UNL     1     101.025 112.710 108.955  1.00  0.00     0.180 C 
BRANCH  25  26
ATOM     26  O   UNL     1     101.803 111.669 109.532  1.00  0.00    -0.394 OA
ATOM     27  H   UNL     1     101.237 110.878 109.573  1.00  0.00     0.210 HD
ENDBRANCH  25  26
ENDBRANCH   1  25
TORSDOF 4
ENDMDL
MODEL 5
REMARK VINA RESULT:    -8.017      4.961      6.726
REMARK INTER + INTRA:          -9.776
REMARK INTER:                  -9.376
REMARK INTRA:                  -0.400
REMARK UNBOUND:                -0.119
REMARK SMILES C[C@@H](CO)NC(=O)[C@@H]1C=C2c3cccc4[nH]cc(c34)C[C@H]2N(C)C1
REMARK SMILES IDX 2 1 1 2 5 3 7 4 6 5 8 7 24 8 9 9 22 10 10 11 21 12 11 13
REMARK SMILES IDX 20 14 19 15 12 16 18 17 15 18 13 19 17 20 16 21 14 22 23 23
REMARK SMILES IDX 3 25 4 26
REMARK H PARENT 5 6 16 24 4 27
ROOT
ATOM      1  C   UNL     1      96.253 122.318 114.563  1.00  0.00     0.104 C 
ATOM      2  C   UNL     1      95.555 123.577 115.075  1.00  0.00     0.033 C 
ENDROOT
BRANCH   1   3
ATOM      3  N   UNL     1      97.492 122.105 115.310  1.00  0.00    -0.351 N 
ATOM      4  O   UNL     1      99.467 121.161 115.715  1.00  0.00    -0.274 OA
ATOM      5  C   UNL     1      98.655 121.529 114.867  1.00  0.00     0.228 C 
ATOM      6  H   UNL     1      97.436 122.107 116.322  1.00  0.00     0.163 HD
BRANCH   5   7
ATOM      7  C   UNL     1      98.897 121.404 113.357  1.00  0.00     0.115 C 
ATOM      8  C   UNL     1      98.398 120.028 112.858  1.00  0.00     0.102 C 
ATOM      9  C   UNL     1     100.368 121.573 113.055  1.00  0.00    -0.007 C 
ATOM     10  N   UNL     1      98.763 119.713 111.463  1.00  0.00    -0.298 NA
ATOM     11  C   UNL     1     100.984 120.808 112.135  1.00  0.00    -0.026 C 
ATOM     12  C   UNL     1     100.238 119.746 111.280  1.00  0.00     0.091 C 
ATOM     13  C   UNL     1     102.452 120.842 111.952  1.00  0.00    -0.011 A 
ATOM     14  C   UNL     1     100.843 118.304 111.462  1.00  0.00     0.061 C 
ATOM     15  C   UNL     1     102.991 119.602 111.571  1.00  0.00     0.010 A 
ATOM     16  C   UNL     1     103.337 121.908 112.131  1.00  0.00     0.009 A 
ATOM     17  C   UNL     1     102.332 118.372 111.325  1.00  0.00    -0.020 A 
ATOM     18  C   UNL     1     104.350 119.428 111.376  1.00  0.00     0.046 A 
ATOM     19  C   UNL     1     104.712 121.724 111.926  1.00  0.00     0.003 A 
ATOM     20  C   UNL     1     103.301 117.457 110.987  1.00  0.00     0.087 A 
ATOM     21  N   UNL     1     104.517 118.106 111.021  1.00  0.00    -0.361 N 
ATOM     22  C   UNL     1     105.251 120.482 111.546  1.00  0.00     0.027 A 
ATOM     23  C   UNL     1      98.092 120.600 110.513  1.00  0.00     0.106 C 
ATOM     24  H   UNL     1     105.408 117.675 110.818  1.00  0.00     0.166 HD
ENDBRANCH   5   7
ENDBRANCH   1   3
BRANCH   1  25
ATOM     25  C   UNL     1      95.330 121.091 114.662  1.00  0.00     0.180 C 
BRANCH  25  26
ATOM     26  O   UNL     1      95.088 120.542 113.374  1.00  0.00    -0.394 OA
ATOM     27  H   UNL     1      94.634 119.691 113.505  1.00  0.00     0.210 HD
ENDBRANCH  25  26
ENDBRANCH   1  25
TORSDOF 4
ENDMDL
MODEL 6
REMARK VINA RESULT:    -7.965      6.105      7.844
REMARK INTER + INTRA:          -9.713
REMARK INTER:                  -9.345
REMARK INTRA:                  -0.369
REMARK UNBOUND:                -0.119
REMARK SMILES C[C@@H](CO)NC(=O)[C@@H]1C=C2c3cccc4[nH]cc(c34)C[C@H]2N(C)C1
REMARK SMILES IDX 2 1 1 2 5 3 7 4 6 5 8 7 24 8 9 9 22 10 10 11 21 12 11 13
REMARK SMILES IDX 20 14 19 15 12 16 18 17 15 18 13 19 17 20 16 21 14 22 23 23
REMARK SMILES IDX 3 25 4 26
REMARK H PARENT 5 6 16 24 4 27
ROOT
ATOM      1  C   UNL     1      94.375 122.019 115.286  1.00  0.00     0.104 C 
ATOM      2  C   UNL     1      93.642 123.347 115.475  1.00  0.00     0.033 C 
ENDROOT
BRANCH   1   3
ATOM      3  N   UNL     1      95.661 122.064 115.980  1.00  0.00    -0.351 N 
ATOM      4  O   UNL     1      97.768 121.458 116.367  1.00  0.00    -0.274 OA
ATOM      5  C   UNL     1      96.876 121.615 115.533  1.00  0.00     0.228 C 
ATOM      6  H   UNL     1      95.646 122.167 116.989  1.00  0.00     0.163 HD
BRANCH   5   7
ATOM      7  C   UNL     1      97.072 121.364 114.032  1.00  0.00     0.115 C 
ATOM      8  C   UNL     1      96.789 119.879 113.707  1.00  0.00     0.102 C 
ATOM      9  C   UNL     1      98.480 121.734 113.627  1.00  0.00    -0.007 C 
ATOM     10  N   UNL     1      97.143 119.475 112.332  1.00  0.00    -0.298 NA
ATOM     11  C   UNL     1      99.176 120.982 112.755  1.00  0.00    -0.026 C 
ATOM     12  C   UNL     1      98.583 119.725 112.059  1.00  0.00     0.091 C 
ATOM     13  C   UNL     1     100.609 121.232 112.482  1.00  0.00    -0.011 A 
ATOM     14  C   UNL     1      99.427 118.428 112.351  1.00  0.00     0.061 C 
ATOM     15  C   UNL     1     101.331 120.061 112.198  1.00  0.00     0.010 A 
ATOM     16  C   UNL     1     101.310 122.439 112.498  1.00  0.00     0.009 A 
ATOM     17  C   UNL     1     100.876 118.721 112.119  1.00  0.00    -0.020 A 
ATOM     18  C   UNL     1     102.691 120.088 111.941  1.00  0.00     0.046 A 
ATOM     19  C   UNL     1     102.687 122.459 112.232  1.00  0.00     0.003 A 
ATOM     20  C   UNL     1     101.969 117.942 111.819  1.00  0.00     0.087 A 
ATOM     21  N   UNL     1     103.061 118.779 111.714  1.00  0.00    -0.361 N 
ATOM     22  C   UNL     1     103.409 121.286 111.949  1.00  0.00     0.027 A 
ATOM     23  C   UNL     1      96.294 120.131 111.338  1.00  0.00     0.106 C 
ATOM     24  H   UNL     1     104.002 118.478 111.503  1.00  0.00     0.166 HD
ENDBRANCH   5   7
ENDBRANCH   1   3
BRANCH   1  25
ATOM     25  C   UNL     1      93.521 120.838 115.782  1.00  0.00     0.180 C 
BRANCH  25  26
ATOM     26  O   UNL     1      92.139 121.172 115.748  1.00  0.00    -0.394 OA
ATOM     27  H   UNL     1      91.747 120.854 116.581  1.00  0.00     0.210 HD
ENDBRANCH  25  26
ENDBRANCH   1  25
TORSDOF 4
ENDMDL
MODEL 7
REMARK VINA RESULT:    -7.956      2.848      5.748
REMARK INTER + INTRA:          -9.702
REMARK INTER:                 -10.245
REMARK INTRA:                   0.542
REMARK UNBOUND:                -0.119
REMARK SMILES C[C@@H](CO)NC(=O)[C@@H]1C=C2c3cccc4[nH]cc(c34)C[C@H]2N(C)C1
REMARK SMILES IDX 2 1 1 2 5 3 7 4 6 5 8 7 24 8 9 9 22 10 10 11 21 12 11 13
REMARK SMILES IDX 20 14 19 15 12 16 18 17 15 18 13 19 17 20 16 21 14 22 23 23
REMARK SMILES IDX 3 25 4 26
REMARK H PARENT 5 6 16 24 4 27
ROOT
ATOM      1  C   UNL     1     101.601 118.642 112.322  1.00  0.00     0.104 C 
ATOM      2  C   UNL     1     100.133 118.676 111.898  1.00  0.00     0.033 C 
ENDROOT
BRANCH   1   3
ATOM      3  N   UNL     1     102.357 119.636 111.562  1.00  0.00    -0.351 N 
ATOM      4  O   UNL     1     104.203 120.594 110.768  1.00  0.00    -0.274 OA
ATOM      5  C   UNL     1     103.649 119.550 111.113  1.00  0.00     0.228 C 
ATOM      6  H   UNL     1     102.033 120.596 111.594  1.00  0.00     0.163 HD
BRANCH   5   7
ATOM      7  C   UNL     1     104.320 118.172 111.034  1.00  0.00     0.115 C 
ATOM      8  C   UNL     1     105.156 118.071 109.736  1.00  0.00     0.102 C 
ATOM      9  C   UNL     1     103.271 117.085 111.071  1.00  0.00    -0.007 C 
ATOM     10  N   UNL     1     105.681 116.721 109.450  1.00  0.00    -0.298 NA
ATOM     11  C   UNL     1     103.369 115.993 110.292  1.00  0.00    -0.026 C 
ATOM     12  C   UNL     1     104.575 115.733 109.347  1.00  0.00     0.091 C 
ATOM     13  C   UNL     1     102.269 115.008 110.191  1.00  0.00    -0.011 A 
ATOM     14  C   UNL     1     104.131 115.565 107.846  1.00  0.00     0.061 C 
ATOM     15  C   UNL     1     102.175 114.411 108.922  1.00  0.00     0.010 A 
ATOM     16  C   UNL     1     101.332 114.633 111.155  1.00  0.00     0.009 A 
ATOM     17  C   UNL     1     102.984 114.606 107.775  1.00  0.00    -0.020 A 
ATOM     18  C   UNL     1     101.194 113.482 108.625  1.00  0.00     0.046 A 
ATOM     19  C   UNL     1     100.343 113.687 110.848  1.00  0.00     0.003 A 
ATOM     20  C   UNL     1     102.481 113.794 106.785  1.00  0.00     0.087 A 
ATOM     21  N   UNL     1     101.398 113.120 107.311  1.00  0.00    -0.361 N 
ATOM     22  C   UNL     1     100.250 113.091 109.578  1.00  0.00     0.027 A 
ATOM     23  C   UNL     1     106.674 116.304 110.440  1.00  0.00     0.106 C 
ATOM     24  H   UNL     1     100.830 112.454 106.805  1.00  0.00     0.166 HD
ENDBRANCH   5   7
ENDBRANCH   1   3
BRANCH   1  25
ATOM     25  C   UNL     1     101.747 118.877 113.837  1.00  0.00     0.180 C 
BRANCH  25  26
ATOM     26  O   UNL     1     100.577 119.490 114.362  1.00  0.00    -0.394 OA
ATOM     27  H   UNL     1     100.072 119.839 113.606  1.00  0.00     0.210 HD
ENDBRANCH  25  26
ENDBRANCH   1  25
TORSDOF 4
ENDMDL
MODEL 8
REMARK VINA RESULT:    -7.820      4.479      7.129
REMARK INTER + INTRA:          -9.539
REMARK INTER:                  -9.112
REMARK INTRA:                  -0.426
REMARK UNBOUND:                -0.119
REMARK SMILES C[C@@H](CO)NC(=O)[C@@H]1C=C2c3cccc4[nH]cc(c34)C[C@H]2N(C)C1
REMARK SMILES IDX 2 1 1 2 5 3 7 4 6 5 8 7 24 8 9 9 22 10 10 11 21 12 11 13
REMARK SMILES IDX 20 14 19 15 12 16 18 17 15 18 13 19 17 20 16 21 14 22 23 23
REMARK SMILES IDX 3 25 4 26
REMARK H PARENT 5 6 16 24 4 27
ROOT
ATOM      1  C   UNL     1     103.812 117.450 109.236  1.00  0.00     0.104 C 
ATOM      2  C   UNL     1     103.250 117.603 107.823  1.00  0.00     0.033 C 
ENDROOT
BRANCH   1   3
ATOM      3  N   UNL     1     102.824 116.792 110.090  1.00  0.00    -0.351 N 
ATOM      4  O   UNL     1     101.535 116.581 111.893  1.00  0.00    -0.274 OA
ATOM      5  C   UNL     1     102.075 117.347 111.095  1.00  0.00     0.228 C 
ATOM      6  H   UNL     1     102.873 115.782 110.172  1.00  0.00     0.163 HD
BRANCH   5   7
ATOM      7  C   UNL     1     101.920 118.873 111.154  1.00  0.00     0.115 C 
ATOM      8  C   UNL     1     102.280 119.382 112.569  1.00  0.00     0.102 C 
ATOM      9  C   UNL     1     100.504 119.262 110.798  1.00  0.00    -0.007 C 
ATOM     10  N   UNL     1     101.973 120.807 112.804  1.00  0.00    -0.298 NA
ATOM     11  C   UNL     1      99.862 120.242 111.459  1.00  0.00    -0.026 C 
ATOM     12  C   UNL     1     100.528 121.081 112.586  1.00  0.00     0.091 C 
ATOM     13  C   UNL     1      98.424 120.516 111.240  1.00  0.00    -0.011 A 
ATOM     14  C   UNL     1      99.742 120.983 113.946  1.00  0.00     0.061 C 
ATOM     15  C   UNL     1      97.765 120.969 112.395  1.00  0.00     0.010 A 
ATOM     16  C   UNL     1      97.666 120.361 110.078  1.00  0.00     0.009 A 
ATOM     17  C   UNL     1      98.285 121.211 113.691  1.00  0.00    -0.020 A 
ATOM     18  C   UNL     1      96.411 121.255 112.396  1.00  0.00     0.046 A 
ATOM     19  C   UNL     1      96.295 120.657 110.085  1.00  0.00     0.003 A 
ATOM     20  C   UNL     1      97.237 121.639 114.472  1.00  0.00     0.087 A 
ATOM     21  N   UNL     1      96.108 121.661 113.678  1.00  0.00    -0.361 N 
ATOM     22  C   UNL     1      95.636 121.109 111.242  1.00  0.00     0.027 A 
ATOM     23  C   UNL     1     102.809 121.684 111.985  1.00  0.00     0.106 C 
ATOM     24  H   UNL     1      95.187 121.933 113.991  1.00  0.00     0.166 HD
ENDBRANCH   5   7
ENDBRANCH   1   3
BRANCH   1  25
ATOM     25  C   UNL     1     105.139 116.671 109.225  1.00  0.00     0.180 C 
BRANCH  25  26
ATOM     26  O   UNL     1     105.105 115.640 108.247  1.00  0.00    -0.394 OA
ATOM     27  H   UNL     1     104.246 115.704 107.793  1.00  0.00     0.210 HD
ENDBRANCH  25  26
ENDBRANCH   1  25
TORSDOF 4
ENDMDL
MODEL 9
REMARK VINA RESULT:    -7.723      7.963     10.902
REMARK INTER + INTRA:          -9.422
REMARK INTER:                  -8.986
REMARK INTRA:                  -0.436
REMARK UNBOUND:                -0.119
REMARK SMILES C[C@@H](CO)NC(=O)[C@@H]1C=C2c3cccc4[nH]cc(c34)C[C@H]2N(C)C1
REMARK SMILES IDX 2 1 1 2 5 3 7 4 6 5 8 7 24 8 9 9 22 10 10 11 21 12 11 13
REMARK SMILES IDX 20 14 19 15 12 16 18 17 15 18 13 19 17 20 16 21 14 22 23 23
REMARK SMILES IDX 3 25 4 26
REMARK H PARENT 5 6 16 24 4 27
ROOT
ATOM      1  C   UNL     1      94.276 122.219 115.585  1.00  0.00     0.104 C 
ATOM      2  C   UNL     1      92.875 121.821 116.047  1.00  0.00     0.033 C 
ENDROOT
BRANCH   1   3
ATOM      3  N   UNL     1      94.632 121.465 114.384  1.00  0.00    -0.351 N 
ATOM      4  O   UNL     1      95.881 120.085 113.164  1.00  0.00    -0.274 OA
ATOM      5  C   UNL     1      95.469 120.384 114.284  1.00  0.00     0.228 C 
ATOM      6  H   UNL     1      94.496 121.920 113.488  1.00  0.00     0.163 HD
BRANCH   5   7
ATOM      7  C   UNL     1      95.819 119.594 115.551  1.00  0.00     0.115 C 
ATOM      8  C   UNL     1      97.339 119.309 115.588  1.00  0.00     0.102 C 
ATOM      9  C   UNL     1      95.039 118.300 115.583  1.00  0.00    -0.007 C 
ATOM     10  N   UNL     1      97.762 118.380 116.655  1.00  0.00    -0.298 NA
ATOM     11  C   UNL     1      95.606 117.152 115.999  1.00  0.00    -0.026 C 
ATOM     12  C   UNL     1      97.066 117.072 116.527  1.00  0.00     0.091 C 
ATOM     13  C   UNL     1      94.912 115.851 115.874  1.00  0.00    -0.011 A 
ATOM     14  C   UNL     1      97.945 116.065 115.696  1.00  0.00     0.061 C 
ATOM     15  C   UNL     1      95.788 114.777 115.640  1.00  0.00     0.010 A 
ATOM     16  C   UNL     1      93.545 115.574 115.930  1.00  0.00     0.009 A 
ATOM     17  C   UNL     1      97.201 114.776 115.537  1.00  0.00    -0.020 A 
ATOM     18  C   UNL     1      95.325 113.484 115.471  1.00  0.00     0.046 A 
ATOM     19  C   UNL     1      93.084 114.260 115.761  1.00  0.00     0.003 A 
ATOM     20  C   UNL     1      97.586 113.477 115.299  1.00  0.00     0.087 A 
ATOM     21  N   UNL     1      96.443 112.705 115.260  1.00  0.00    -0.361 N 
ATOM     22  C   UNL     1      93.962 113.186 115.527  1.00  0.00     0.027 A 
ATOM     23  C   UNL     1      97.567 118.956 117.985  1.00  0.00     0.106 C 
ATOM     24  H   UNL     1      96.424 111.708 115.097  1.00  0.00     0.166 HD
ENDBRANCH   5   7
ENDBRANCH   1   3
BRANCH   1  25
ATOM     25  C   UNL     1      94.368 123.735 115.333  1.00  0.00     0.180 C 
BRANCH  25  26
ATOM     26  O   UNL     1      93.071 124.317 115.305  1.00  0.00    -0.394 OA
ATOM     27  H   UNL     1      92.774 124.399 116.229  1.00  0.00     0.210 HD
ENDBRANCH  25  26
ENDBRANCH   1  25
TORSDOF 4
ENDMDL
MODEL 10
REMARK VINA RESULT:    -7.721      4.068      5.867
REMARK INTER + INTRA:          -9.420
REMARK INTER:                  -9.148
REMARK INTRA:                  -0.272
REMARK UNBOUND:                -0.119
REMARK SMILES C[C@@H](CO)NC(=O)[C@@H]1C=C2c3cccc4[nH]cc(c34)C[C@H]2N(C)C1
REMARK SMILES IDX 2 1 1 2 5 3 7 4 6 5 8 7 24 8 9 9 22 10 10 11 21 12 11 13
REMARK SMILES IDX 20 14 19 15 12 16 18 17 15 18 13 19 17 20 16 21 14 22 23 23
REMARK SMILES IDX 3 25 4 26
REMARK H PARENT 5 6 16 24 4 27
ROOT
ATOM      1  C   UNL     1      97.057 120.595 113.014  1.00  0.00     0.104 C 
ATOM      2  C   UNL     1      95.710 119.882 113.135  1.00  0.00     0.033 C 
ENDROOT
BRANCH   1   3
ATOM      3  N   UNL     1      97.462 120.647 111.611  1.00  0.00    -0.351 N 
ATOM      4  O   UNL     1      98.924 120.716 109.933  1.00  0.00    -0.274 OA
ATOM      5  C   UNL     1      98.678 120.318 111.071  1.00  0.00     0.228 C 
ATOM      6  H   UNL     1      96.924 121.240 110.988  1.00  0.00     0.163 HD
BRANCH   5   7
ATOM      7  C   UNL     1      99.647 119.453 111.890  1.00  0.00     0.115 C 
ATOM      8  C   UNL     1     100.454 120.347 112.861  1.00  0.00     0.102 C 
ATOM      9  C   UNL     1     100.578 118.705 110.965  1.00  0.00    -0.007 C 
ATOM     10  N   UNL     1     101.559 119.655 113.554  1.00  0.00    -0.298 NA
ATOM     11  C   UNL     1     101.883 118.555 111.259  1.00  0.00    -0.026 C 
ATOM     12  C   UNL     1     102.519 119.078 112.577  1.00  0.00     0.091 C 
ATOM     13  C   UNL     1     102.838 117.978 110.287  1.00  0.00    -0.011 A 
ATOM     14  C   UNL     1     103.698 120.086 112.309  1.00  0.00     0.061 C 
ATOM     15  C   UNL     1     104.128 118.524 110.388  1.00  0.00     0.010 A 
ATOM     16  C   UNL     1     102.616 117.014 109.301  1.00  0.00     0.009 A 
ATOM     17  C   UNL     1     104.621 119.504 111.285  1.00  0.00    -0.020 A 
ATOM     18  C   UNL     1     105.154 118.130 109.547  1.00  0.00     0.046 A 
ATOM     19  C   UNL     1     103.662 116.616 108.455  1.00  0.00     0.003 A 
ATOM     20  C   UNL     1     105.948 119.701 110.976  1.00  0.00     0.087 A 
ATOM     21  N   UNL     1     106.258 118.866 109.923  1.00  0.00    -0.361 N 
ATOM     22  C   UNL     1     104.953 117.165 108.557  1.00  0.00     0.027 A 
ATOM     23  C   UNL     1     101.066 118.635 114.479  1.00  0.00     0.106 C 
ATOM     24  H   UNL     1     107.166 118.801 109.484  1.00  0.00     0.166 HD
ENDBRANCH   5   7
ENDBRANCH   1   3
BRANCH   1  25
ATOM     25  C   UNL     1      96.994 122.008 113.623  1.00  0.00     0.180 C 
BRANCH  25  26
ATOM     26  O   UNL     1      95.896 122.735 113.086  1.00  0.00    -0.394 OA
ATOM     27  H   UNL     1      95.806 122.470 112.153  1.00  0.00     0.210 HD
ENDBRANCH  25  26
ENDBRANCH   1  25
TORSDOF 4
ENDMDL
MODEL 11
REMARK VINA RESULT:    -7.668      2.975      6.368
REMARK INTER + INTRA:          -9.356
REMARK INTER:                  -9.193
REMARK INTRA:                  -0.164
REMARK UNBOUND:                -0.119
REMARK SMILES C[C@@H](CO)NC(=O)[C@@H]1C=C2c3cccc4[nH]cc(c34)C[C@H]2N(C)C1
REMARK SMILES IDX 2 1 1 2 5 3 7 4 6 5 8 7 24 8 9 9 22 10 10 11 21 12 11 13
REMARK SMILES IDX 20 14 19 15 12 16 18 17 15 18 13 19 17 20 16 21 14 22 23 23
REMARK SMILES IDX 3 25 4 26
REMARK H PARENT 5 6 16 24 4 27
ROOT
ATOM      1  C   UNL     1     104.325 120.296 111.879  1.00  0.00     0.104 C 
ATOM      2  C   UNL     1     103.020 119.854 112.539  1.00  0.00     0.033 C 
ENDROOT
BRANCH   1   3
ATOM      3  N   UNL     1     104.201 120.195 110.425  1.00  0.00    -0.351 N 
ATOM      4  O   UNL     1     104.709 119.408 108.406  1.00  0.00    -0.274 OA
ATOM      5  C   UNL     1     104.623 119.177 109.611  1.00  0.00     0.228 C 
ATOM      6  H   UNL     1     104.053 121.054 109.906  1.00  0.00     0.163 HD
BRANCH   5   7
ATOM      7  C   UNL     1     104.933 117.807 110.232  1.00  0.00     0.115 C 
ATOM      8  C   UNL     1     105.648 116.911 109.193  1.00  0.00     0.102 C 
ATOM      9  C   UNL     1     103.654 117.153 110.701  1.00  0.00    -0.007 C 
ATOM     10  N   UNL     1     105.811 115.504 109.608  1.00  0.00    -0.298 NA
ATOM     11  C   UNL     1     103.440 115.835 110.532  1.00  0.00    -0.026 C 
ATOM     12  C   UNL     1     104.494 114.881 109.903  1.00  0.00     0.091 C 
ATOM     13  C   UNL     1     102.130 115.215 110.828  1.00  0.00    -0.011 A 
ATOM     14  C   UNL     1     103.942 114.141 108.629  1.00  0.00     0.061 C 
ATOM     15  C   UNL     1     101.825 114.135 109.983  1.00  0.00     0.010 A 
ATOM     16  C   UNL     1     101.183 115.575 111.789  1.00  0.00     0.009 A 
ATOM     17  C   UNL     1     102.594 113.568 108.936  1.00  0.00    -0.020 A 
ATOM     18  C   UNL     1     100.632 113.442 110.088  1.00  0.00     0.046 A 
ATOM     19  C   UNL     1      99.978 114.864 111.893  1.00  0.00     0.003 A 
ATOM     20  C   UNL     1     101.855 112.534 108.409  1.00  0.00     0.087 A 
ATOM     21  N   UNL     1     100.671 112.468 109.113  1.00  0.00    -0.361 N 
ATOM     22  C   UNL     1      99.674 113.784 111.046  1.00  0.00     0.027 A 
ATOM     23  C   UNL     1     106.725 115.376 110.744  1.00  0.00     0.106 C 
ATOM     24  H   UNL     1      99.931 111.801 108.939  1.00  0.00     0.166 HD
ENDBRANCH   5   7
ENDBRANCH   1   3
BRANCH   1  25
ATOM     25  C   UNL     1     104.706 121.727 112.302  1.00  0.00     0.180 C 
BRANCH  25  26
ATOM     26  O   UNL     1     103.552 122.451 112.707  1.00  0.00    -0.394 OA
ATOM     27  H   UNL     1     103.352 122.184 113.622  1.00  0.00     0.210 HD
ENDBRANCH  25  26
ENDBRANCH   1  25
TORSDOF 4
ENDMDL
MODEL 12
REMARK VINA RESULT:    -7.425      2.970      5.425
REMARK INTER + INTRA:          -9.063
REMARK INTER:                  -9.202
REMARK INTRA:                   0.140
REMARK UNBOUND:                -0.119
REMARK SMILES C[C@@H](CO)NC(=O)[C@@H]1C=C2c3cccc4[nH]cc(c34)C[C@H]2N(C)C1
REMARK SMILES IDX 2 1 1 2 5 3 7 4 6 5 8 7 24 8 9 9 22 10 10 11 21 12 11 13
REMARK SMILES IDX 20 14 19 15 12 16 18 17 15 18 13 19 17 20 16 21 14 22 23 23
REMARK SMILES IDX 3 25 4 26
REMARK H PARENT 5 6 16 24 4 27
ROOT
ATOM      1  C   UNL     1      98.683 119.752 114.216  1.00  0.00     0.104 C 
ATOM      2  C   UNL     1      99.386 121.013 114.720  1.00  0.00     0.033 C 
ENDROOT
BRANCH   1   3
ATOM      3  N   UNL     1      98.576 119.798 112.758  1.00  0.00    -0.351 N 
ATOM      4  O   UNL     1      99.315 120.167 110.691  1.00  0.00    -0.274 OA
ATOM      5  C   UNL     1      99.592 119.819 111.838  1.00  0.00     0.228 C 
ATOM      6  H   UNL     1      97.704 120.131 112.362  1.00  0.00     0.163 HD
BRANCH   5   7
ATOM      7  C   UNL     1     100.998 119.383 112.271  1.00  0.00     0.115 C 
ATOM      8  C   UNL     1     102.038 120.431 111.810  1.00  0.00     0.102 C 
ATOM      9  C   UNL     1     101.320 118.027 111.686  1.00  0.00    -0.007 C 
ATOM     10  N   UNL     1     103.444 120.019 111.990  1.00  0.00    -0.298 NA
ATOM     11  C   UNL     1     102.544 117.748 111.201  1.00  0.00    -0.026 C 
ATOM     12  C   UNL     1     103.725 118.758 111.254  1.00  0.00     0.091 C 
ATOM     13  C   UNL     1     102.825 116.492 110.472  1.00  0.00    -0.011 A 
ATOM     14  C   UNL     1     104.301 119.076 109.825  1.00  0.00     0.061 C 
ATOM     15  C   UNL     1     103.793 116.641 109.465  1.00  0.00     0.010 A 
ATOM     16  C   UNL     1     102.248 115.231 110.636  1.00  0.00     0.009 A 
ATOM     17  C   UNL     1     104.527 117.793 109.087  1.00  0.00    -0.020 A 
ATOM     18  C   UNL     1     104.173 115.584 108.657  1.00  0.00     0.046 A 
ATOM     19  C   UNL     1     102.642 114.163 109.816  1.00  0.00     0.003 A 
ATOM     20  C   UNL     1     105.345 117.425 108.044  1.00  0.00     0.087 A 
ATOM     21  N   UNL     1     105.122 116.087 107.792  1.00  0.00    -0.361 N 
ATOM     22  C   UNL     1     103.610 114.314 108.808  1.00  0.00     0.027 A 
ATOM     23  C   UNL     1     103.798 119.898 113.404  1.00  0.00     0.106 C 
ATOM     24  H   UNL     1     105.586 115.549 107.074  1.00  0.00     0.166 HD
ENDBRANCH   5   7
ENDBRANCH   1   3
BRANCH   1  25
ATOM     25  C   UNL     1      99.422 118.482 114.676  1.00  0.00     0.180 C 
BRANCH  25  26
ATOM     26  O   UNL     1      98.738 117.318 114.231  1.00  0.00    -0.394 OA
ATOM     27  H   UNL     1      98.659 116.722 114.996  1.00  0.00     0.210 HD
ENDBRANCH  25  26
ENDBRANCH   1  25
TORSDOF 4
ENDMDL
MODEL 13
REMARK VINA RESULT:    -7.405      2.534      4.955
REMARK INTER + INTRA:          -9.039
REMARK INTER:                  -8.868
REMARK INTRA:                  -0.170
REMARK UNBOUND:                -0.119
REMARK SMILES C[C@@H](CO)NC(=O)[C@@H]1C=C2c3cccc4[nH]cc(c34)C[C@H]2N(C)C1
REMARK SMILES IDX 2 1 1 2 5 3 7 4 6 5 8 7 24 8 9 9 22 10 10 11 21 12 11 13
REMARK SMILES IDX 20 14 19 15 12 16 18 17 15 18 13 19 17 20 16 21 14 22 23 23
REMARK SMILES IDX 3 25 4 26
REMARK H PARENT 5 6 16 24 4 27
ROOT
ATOM      1  C   UNL     1     104.114 114.145 107.206  1.00  0.00     0.104 C 
ATOM      2  C   UNL     1     104.603 115.580 107.007  1.00  0.00     0.033 C 
ENDROOT
BRANCH   1   3
ATOM      3  N   UNL     1     102.671 114.082 106.985  1.00  0.00    -0.351 N 
ATOM      4  O   UNL     1     100.581 113.477 107.459  1.00  0.00    -0.274 OA
ATOM      5  C   UNL     1     101.691 113.780 107.895  1.00  0.00     0.228 C 
ATOM      6  H   UNL     1     102.346 113.963 106.031  1.00  0.00     0.163 HD
BRANCH   5   7
ATOM      7  C   UNL     1     102.013 113.868 109.393  1.00  0.00     0.115 C 
ATOM      8  C   UNL     1     100.759 113.503 110.221  1.00  0.00     0.102 C 
ATOM      9  C   UNL     1     102.486 115.261 109.738  1.00  0.00    -0.007 C 
ATOM     10  N   UNL     1     100.890 113.750 111.671  1.00  0.00    -0.298 NA
ATOM     11  C   UNL     1     102.101 115.868 110.876  1.00  0.00    -0.026 C 
ATOM     12  C   UNL     1     101.201 115.179 111.940  1.00  0.00     0.091 C 
ATOM     13  C   UNL     1     102.413 117.289 111.144  1.00  0.00    -0.011 A 
ATOM     14  C   UNL     1      99.877 115.985 112.212  1.00  0.00     0.061 C 
ATOM     15  C   UNL     1     101.421 117.942 111.894  1.00  0.00     0.010 A 
ATOM     16  C   UNL     1     103.518 118.040 110.736  1.00  0.00     0.009 A 
ATOM     17  C   UNL     1     100.213 117.427 112.428  1.00  0.00    -0.020 A 
ATOM     18  C   UNL     1     101.521 119.282 112.225  1.00  0.00     0.046 A 
ATOM     19  C   UNL     1     103.615 119.397 111.079  1.00  0.00     0.003 A 
ATOM     20  C   UNL     1      99.585 118.465 113.077  1.00  0.00     0.087 A 
ATOM     21  N   UNL     1     100.385 119.582 112.946  1.00  0.00    -0.361 N 
ATOM     22  C   UNL     1     102.620 120.049 111.829  1.00  0.00     0.027 A 
ATOM     23  C   UNL     1     101.880 112.867 112.285  1.00  0.00     0.106 C 
ATOM     24  H   UNL     1     100.170 120.494 113.324  1.00  0.00     0.166 HD
ENDBRANCH   5   7
ENDBRANCH   1   3
BRANCH   1  25
ATOM     25  C   UNL     1     104.858 113.171 106.274  1.00  0.00     0.180 C 
BRANCH  25  26
ATOM     26  O   UNL     1     103.936 112.350 105.570  1.00  0.00    -0.394 OA
ATOM     27  H   UNL     1     103.538 112.900 104.871  1.00  0.00     0.210 HD
ENDBRANCH  25  26
ENDBRANCH   1  25
TORSDOF 4
ENDMDL
MODEL 14
REMARK VINA RESULT:    -7.392      6.621     10.219
REMARK INTER + INTRA:          -9.024
REMARK INTER:                  -8.679
REMARK INTRA:                  -0.344
REMARK UNBOUND:                -0.119
REMARK SMILES C[C@@H](CO)NC(=O)[C@@H]1C=C2c3cccc4[nH]cc(c34)C[C@H]2N(C)C1
REMARK SMILES IDX 2 1 1 2 5 3 7 4 6 5 8 7 24 8 9 9 22 10 10 11 21 12 11 13
REMARK SMILES IDX 20 14 19 15 12 16 18 17 15 18 13 19 17 20 16 21 14 22 23 23
REMARK SMILES IDX 3 25 4 26
REMARK H PARENT 5 6 16 24 4 27
ROOT
ATOM      1  C   UNL     1      99.278 121.560 113.910  1.00  0.00     0.104 C 
ATOM      2  C   UNL     1      99.095 122.679 114.934  1.00  0.00     0.033 C 
ENDROOT
BRANCH   1   3
ATOM      3  N   UNL     1      97.972 121.135 113.408  1.00  0.00    -0.351 N 
ATOM      4  O   UNL     1      96.368 119.660 112.950  1.00  0.00    -0.274 OA
ATOM      5  C   UNL     1      97.292 119.980 113.697  1.00  0.00     0.228 C 
ATOM      6  H   UNL     1      97.636 121.564 112.552  1.00  0.00     0.163 HD
BRANCH   5   7
ATOM      7  C   UNL     1      97.692 119.173 114.940  1.00  0.00     0.115 C 
ATOM      8  C   UNL     1      98.733 118.096 114.553  1.00  0.00     0.102 C 
ATOM      9  C   UNL     1      96.469 118.528 115.550  1.00  0.00    -0.007 C 
ATOM     10  N   UNL     1      99.037 117.126 115.624  1.00  0.00    -0.298 NA
ATOM     11  C   UNL     1      96.509 117.274 116.037  1.00  0.00    -0.026 C 
ATOM     12  C   UNL     1      97.806 116.419 116.065  1.00  0.00     0.091 C 
ATOM     13  C   UNL     1      95.284 116.571 116.478  1.00  0.00    -0.011 A 
ATOM     14  C   UNL     1      97.644 115.065 115.279  1.00  0.00     0.061 C 
ATOM     15  C   UNL     1      95.331 115.185 116.254  1.00  0.00     0.010 A 
ATOM     16  C   UNL     1      94.121 117.098 117.042  1.00  0.00     0.009 A 
ATOM     17  C   UNL     1      96.373 114.398 115.703  1.00  0.00    -0.020 A 
ATOM     18  C   UNL     1      94.269 114.358 116.578  1.00  0.00     0.046 A 
ATOM     19  C   UNL     1      93.050 116.254 117.372  1.00  0.00     0.003 A 
ATOM     20  C   UNL     1      95.930 113.095 115.691  1.00  0.00     0.087 A 
ATOM     21  N   UNL     1      94.657 113.084 116.221  1.00  0.00    -0.361 N 
ATOM     22  C   UNL     1      93.099 114.867 117.146  1.00  0.00     0.027 A 
ATOM     23  C   UNL     1      99.717 117.761 116.753  1.00  0.00     0.106 C 
ATOM     24  H   UNL     1      94.084 112.259 116.333  1.00  0.00     0.166 HD
ENDBRANCH   5   7
ENDBRANCH   1   3
BRANCH   1  25
ATOM     25  C   UNL     1     100.195 122.006 112.756  1.00  0.00     0.180 C 
BRANCH  25  26
ATOM     26  O   UNL     1     101.199 122.894 113.231  1.00  0.00    -0.394 OA
ATOM     27  H   UNL     1     101.827 123.033 112.501  1.00  0.00     0.210 HD
ENDBRANCH  25  26
ENDBRANCH   1  25
TORSDOF 4
ENDMDL
MODEL 15
REMARK VINA RESULT:    -7.382      2.921      6.687
REMARK INTER + INTRA:          -9.011
REMARK INTER:                  -8.945
REMARK INTRA:                  -0.066
REMARK UNBOUND:                -0.119
REMARK SMILES C[C@@H](CO)NC(=O)[C@@H]1C=C2c3cccc4[nH]cc(c34)C[C@H]2N(C)C1
REMARK SMILES IDX 2 1 1 2 5 3 7 4 6 5 8 7 24 8 9 9 22 10 10 11 21 12 11 13
REMARK SMILES IDX 20 14 19 15 12 16 18 17 15 18 13 19 17 20 16 21 14 22 23 23
REMARK SMILES IDX 3 25 4 26
REMARK H PARENT 5 6 16 24 4 27
ROOT
ATOM      1  C   UNL     1     105.216 117.721 110.423  1.00  0.00     0.104 C 
ATOM      2  C   UNL     1     104.253 118.324 111.445  1.00  0.00     0.033 C 
ENDROOT
BRANCH   1   3
ATOM      3  N   UNL     1     104.828 118.137 109.076  1.00  0.00    -0.351 N 
ATOM      4  O   UNL     1     104.669 117.925 106.865  1.00  0.00    -0.274 OA
ATOM      5  C   UNL     1     104.701 117.356 107.956  1.00  0.00     0.228 C 
ATOM      6  H   UNL     1     104.929 119.118 108.840  1.00  0.00     0.163 HD
BRANCH   5   7
ATOM      7  C   UNL     1     104.574 115.835 108.119  1.00  0.00     0.115 C 
ATOM      8  C   UNL     1     104.207 115.192 106.761  1.00  0.00     0.102 C 
ATOM      9  C   UNL     1     103.522 115.514 109.155  1.00  0.00    -0.007 C 
ATOM     10  N   UNL     1     103.857 113.759 106.837  1.00  0.00    -0.298 NA
ATOM     11  C   UNL     1     102.661 114.494 108.985  1.00  0.00    -0.026 C 
ATOM     12  C   UNL     1     102.711 113.541 107.758  1.00  0.00     0.091 C 
ATOM     13  C   UNL     1     101.521 114.276 109.903  1.00  0.00    -0.011 A 
ATOM     14  C   UNL     1     101.358 113.534 106.954  1.00  0.00     0.061 C 
ATOM     15  C   UNL     1     100.392 113.736 109.265  1.00  0.00     0.010 A 
ATOM     16  C   UNL     1     101.425 114.554 111.268  1.00  0.00     0.009 A 
ATOM     17  C   UNL     1     100.218 113.366 107.908  1.00  0.00    -0.020 A 
ATOM     18  C   UNL     1      99.218 113.484 109.952  1.00  0.00     0.046 A 
ATOM     19  C   UNL     1     100.233 114.291 111.959  1.00  0.00     0.003 A 
ATOM     20  C   UNL     1      98.931 112.894 107.782  1.00  0.00     0.087 A 
ATOM     21  N   UNL     1      98.336 112.971 109.024  1.00  0.00    -0.361 N 
ATOM     22  C   UNL     1      99.103 113.752 111.318  1.00  0.00     0.027 A 
ATOM     23  C   UNL     1     105.007 112.939 107.218  1.00  0.00     0.106 C 
ATOM     24  H   UNL     1      97.386 112.694 109.229  1.00  0.00     0.166 HD
ENDBRANCH   5   7
ENDBRANCH   1   3
BRANCH   1  25
ATOM     25  C   UNL     1     106.671 118.122 110.726  1.00  0.00     0.180 C 
BRANCH  25  26
ATOM     26  O   UNL     1     106.735 119.471 111.170  1.00  0.00    -0.394 OA
ATOM     27  H   UNL     1     106.221 119.526 111.995  1.00  0.00     0.210 HD
ENDBRANCH  25  26
ENDBRANCH   1  25
TORSDOF 4
ENDMDL
MODEL 16
REMARK VINA RESULT:    -7.185      5.303      7.285
REMARK INTER + INTRA:          -8.774
REMARK INTER:                  -8.749
REMARK INTRA:                  -0.025
REMARK UNBOUND:                -0.119
REMARK SMILES C[C@@H](CO)NC(=O)[C@@H]1C=C2c3cccc4[nH]cc(c34)C[C@H]2N(C)C1
REMARK SMILES IDX 2 1 1 2 5 3 7 4 6 5 8 7 24 8 9 9 22 10 10 11 21 12 11 13
REMARK SMILES IDX 20 14 19 15 12 16 18 17 15 18 13 19 17 20 16 21 14 22 23 23
REMARK SMILES IDX 3 25 4 26
REMARK H PARENT 5 6 16 24 4 27
ROOT
ATOM      1  C   UNL     1      97.796 119.641 115.862  1.00  0.00     0.104 C 
ATOM      2  C   UNL     1      97.202 118.418 116.561  1.00  0.00     0.033 C 
ENDROOT
BRANCH   1   3
ATOM      3  N   UNL     1      96.897 120.783 116.019  1.00  0.00    -0.351 N 
ATOM      4  O   UNL     1      96.077 122.791 115.515  1.00  0.00    -0.274 OA
ATOM      5  C   UNL     1      96.605 121.759 115.101  1.00  0.00     0.228 C 
ATOM      6  H   UNL     1      96.670 121.076 116.963  1.00  0.00     0.163 HD
BRANCH   5   7
ATOM      7  C   UNL     1      96.917 121.505 113.620  1.00  0.00     0.115 C 
ATOM      8  C   UNL     1      96.661 120.019 113.278  1.00  0.00     0.102 C 
ATOM      9  C   UNL     1      98.352 121.874 113.325  1.00  0.00    -0.007 C 
ATOM     10  N   UNL     1      97.121 119.612 111.935  1.00  0.00    -0.298 NA
ATOM     11  C   UNL     1      99.114 121.121 112.512  1.00  0.00    -0.026 C 
ATOM     12  C   UNL     1      98.577 119.862 111.775  1.00  0.00     0.091 C 
ATOM     13  C   UNL     1     100.564 121.371 112.351  1.00  0.00    -0.011 A 
ATOM     14  C   UNL     1      99.396 118.567 112.134  1.00  0.00     0.061 C 
ATOM     15  C   UNL     1     101.307 120.200 112.127  1.00  0.00     0.010 A 
ATOM     16  C   UNL     1     101.261 122.579 112.418  1.00  0.00     0.009 A 
ATOM     17  C   UNL     1     100.859 118.860 112.016  1.00  0.00    -0.020 A 
ATOM     18  C   UNL     1     102.682 120.227 111.976  1.00  0.00     0.046 A 
ATOM     19  C   UNL     1     102.655 122.599 112.260  1.00  0.00     0.003 A 
ATOM     20  C   UNL     1     101.973 118.080 111.803  1.00  0.00     0.087 A 
ATOM     21  N   UNL     1     103.069 118.918 111.782  1.00  0.00    -0.361 N 
ATOM     22  C   UNL     1     103.397 121.426 112.037  1.00  0.00     0.027 A 
ATOM     23  C   UNL     1      96.351 120.265 110.876  1.00  0.00     0.106 C 
ATOM     24  H   UNL     1     104.024 118.617 111.645  1.00  0.00     0.166 HD
ENDBRANCH   5   7
ENDBRANCH   1   3
BRANCH   1  25
ATOM     25  C   UNL     1      99.200 119.964 116.406  1.00  0.00     0.180 C 
BRANCH  25  26
ATOM     26  O   UNL     1     100.200 119.552 115.484  1.00  0.00    -0.394 OA
ATOM     27  H   UNL     1     100.725 118.858 115.922  1.00  0.00     0.210 HD
ENDBRANCH  25  26
ENDBRANCH   1  25
TORSDOF 4
ENDMDL
MODEL 17
REMARK VINA RESULT:    -7.161      6.663      8.906
REMARK INTER + INTRA:          -8.745
REMARK INTER:                  -8.396
REMARK INTRA:                  -0.349
REMARK UNBOUND:                -0.119
REMARK SMILES C[C@@H](CO)NC(=O)[C@@H]1C=C2c3cccc4[nH]cc(c34)C[C@H]2N(C)C1
REMARK SMILES IDX 2 1 1 2 5 3 7 4 6 5 8 7 24 8 9 9 22 10 10 11 21 12 11 13
REMARK SMILES IDX 20 14 19 15 12 16 18 17 15 18 13 19 17 20 16 21 14 22 23 23
REMARK SMILES IDX 3 25 4 26
REMARK H PARENT 5 6 16 24 4 27
ROOT
ATOM      1  C   UNL     1      93.649 118.185 118.051  1.00  0.00     0.104 C 
ATOM      2  C   UNL     1      94.501 118.730 119.196  1.00  0.00     0.033 C 
ENDROOT
BRANCH   1   3
ATOM      3  N   UNL     1      94.436 117.243 117.257  1.00  0.00    -0.351 N 
ATOM      4  O   UNL     1      95.490 116.531 115.430  1.00  0.00    -0.274 OA
ATOM      5  C   UNL     1      95.155 117.495 116.118  1.00  0.00     0.228 C 
ATOM      6  H   UNL     1      94.228 116.255 117.359  1.00  0.00     0.163 HD
BRANCH   5   7
ATOM      7  C   UNL     1      95.530 118.944 115.779  1.00  0.00     0.115 C 
ATOM      8  C   UNL     1      94.486 119.541 114.805  1.00  0.00     0.102 C 
ATOM      9  C   UNL     1      96.910 118.990 115.165  1.00  0.00    -0.007 C 
ATOM     10  N   UNL     1      94.852 120.859 114.249  1.00  0.00    -0.298 NA
ATOM     11  C   UNL     1      97.187 119.803 114.130  1.00  0.00    -0.026 C 
ATOM     12  C   UNL     1      96.148 120.788 113.525  1.00  0.00     0.091 C 
ATOM     13  C   UNL     1      98.479 119.734 113.410  1.00  0.00    -0.011 A 
ATOM     14  C   UNL     1      95.903 120.529 111.992  1.00  0.00     0.061 C 
ATOM     15  C   UNL     1      98.367 120.037 112.043  1.00  0.00     0.010 A 
ATOM     16  C   UNL     1      99.741 119.392 113.899  1.00  0.00     0.009 A 
ATOM     17  C   UNL     1      97.223 120.409 111.295  1.00  0.00    -0.020 A 
ATOM     18  C   UNL     1      99.462 120.002 111.197  1.00  0.00     0.046 A 
ATOM     19  C   UNL     1     100.847 119.363 113.036  1.00  0.00     0.003 A 
ATOM     20  C   UNL     1      97.633 120.593 109.995  1.00  0.00     0.087 A 
ATOM     21  N   UNL     1      98.989 120.342 109.948  1.00  0.00    -0.361 N 
ATOM     22  C   UNL     1     100.734 119.665 111.668  1.00  0.00     0.027 A 
ATOM     23  C   UNL     1      94.877 121.896 115.281  1.00  0.00     0.106 C 
ATOM     24  H   UNL     1      99.559 120.398 109.115  1.00  0.00     0.166 HD
ENDBRANCH   5   7
ENDBRANCH   1   3
BRANCH   1  25
ATOM     25  C   UNL     1      92.364 117.522 118.581  1.00  0.00     0.180 C 
BRANCH  25  26
ATOM     26  O   UNL     1      92.346 116.138 118.257  1.00  0.00    -0.394 OA
ATOM     27  H   UNL     1      91.443 115.924 117.962  1.00  0.00     0.210 HD
ENDBRANCH  25  26
ENDBRANCH   1  25
TORSDOF 4
ENDMDL
MODEL 18
REMARK VINA RESULT:    -7.150      6.827      9.634
REMARK INTER + INTRA:          -8.731
REMARK INTER:                  -8.420
REMARK INTRA:                  -0.311
REMARK UNBOUND:                -0.119
REMARK SMILES C[C@@H](CO)NC(=O)[C@@H]1C=C2c3cccc4[nH]cc(c34)C[C@H]2N(C)C1
REMARK SMILES IDX 2 1 1 2 5 3 7 4 6 5 8 7 24 8 9 9 22 10 10 11 21 12 11 13
REMARK SMILES IDX 20 14 19 15 12 16 18 17 15 18 13 19 17 20 16 21 14 22 23 23
REMARK SMILES IDX 3 25 4 26
REMARK H PARENT 5 6 16 24 4 27
ROOT
ATOM      1  C   UNL     1     101.907 119.190 112.573  1.00  0.00     0.104 C 
ATOM      2  C   UNL     1     101.878 117.837 111.863  1.00  0.00     0.033 C 
ENDROOT
BRANCH   1   3
ATOM      3  N   UNL     1     101.418 119.037 113.943  1.00  0.00    -0.351 N 
ATOM      4  O   UNL     1     100.061 119.449 115.659  1.00  0.00    -0.274 OA
ATOM      5  C   UNL     1     100.181 119.361 114.438  1.00  0.00     0.228 C 
ATOM      6  H   UNL     1     102.108 118.956 114.681  1.00  0.00     0.163 HD
BRANCH   5   7
ATOM      7  C   UNL     1      99.017 119.562 113.459  1.00  0.00     0.115 C 
ATOM      8  C   UNL     1      98.986 121.031 112.976  1.00  0.00     0.102 C 
ATOM      9  C   UNL     1      97.712 119.200 114.129  1.00  0.00    -0.007 C 
ATOM     10  N   UNL     1      97.788 121.393 112.191  1.00  0.00    -0.298 NA
ATOM     11  C   UNL     1      96.599 119.932 113.934  1.00  0.00    -0.026 C 
ATOM     12  C   UNL     1      96.548 121.155 112.976  1.00  0.00     0.091 C 
ATOM     13  C   UNL     1      95.364 119.694 114.714  1.00  0.00    -0.011 A 
ATOM     14  C   UNL     1      96.110 122.473 113.716  1.00  0.00     0.061 C 
ATOM     15  C   UNL     1      94.627 120.865 114.953  1.00  0.00     0.010 A 
ATOM     16  C   UNL     1      94.875 118.498 115.243  1.00  0.00     0.009 A 
ATOM     17  C   UNL     1      94.891 122.194 114.539  1.00  0.00    -0.020 A 
ATOM     18  C   UNL     1      93.453 120.849 115.687  1.00  0.00     0.046 A 
ATOM     19  C   UNL     1      93.682 118.489 115.982  1.00  0.00     0.003 A 
ATOM     20  C   UNL     1      93.874 122.979 115.032  1.00  0.00     0.087 A 
ATOM     21  N   UNL     1      93.011 122.155 115.725  1.00  0.00    -0.361 N 
ATOM     22  C   UNL     1      92.945 119.663 116.221  1.00  0.00     0.027 A 
ATOM     23  C   UNL     1      97.747 120.690 110.909  1.00  0.00     0.106 C 
ATOM     24  H   UNL     1      92.172 122.462 116.197  1.00  0.00     0.166 HD
ENDBRANCH   5   7
ENDBRANCH   1   3
BRANCH   1  25
ATOM     25  C   UNL     1     103.322 119.796 112.557  1.00  0.00     0.180 C 
BRANCH  25  26
ATOM     26  O   UNL     1     103.966 119.595 113.809  1.00  0.00    -0.394 OA
ATOM     27  H   UNL     1     103.445 120.073 114.479  1.00  0.00     0.210 HD
ENDBRANCH  25  26
ENDBRANCH   1  25
TORSDOF 4
ENDMDL
MODEL 19
REMARK VINA RESULT:    -7.146      8.492     10.920
REMARK INTER + INTRA:          -8.727
REMARK INTER:                  -8.388
REMARK INTRA:                  -0.340
REMARK UNBOUND:                -0.119
REMARK SMILES C[C@@H](CO)NC(=O)[C@@H]1C=C2c3cccc4[nH]cc(c34)C[C@H]2N(C)C1
REMARK SMILES IDX 2 1 1 2 5 3 7 4 6 5 8 7 24 8 9 9 22 10 10 11 21 12 11 13
REMARK SMILES IDX 20 14 19 15 12 16 18 17 15 18 13 19 17 20 16 21 14 22 23 23
REMARK SMILES IDX 3 25 4 26
REMARK H PARENT 5 6 16 24 4 27
ROOT
ATOM      1  C   UNL     1      97.157 122.556 115.425  1.00  0.00     0.104 C 
ATOM      2  C   UNL     1      96.211 123.757 115.398  1.00  0.00     0.033 C 
ENDROOT
BRANCH   1   3
ATOM      3  N   UNL     1      96.863 121.673 114.298  1.00  0.00    -0.351 N 
ATOM      4  O   UNL     1      96.679 119.707 113.268  1.00  0.00    -0.274 OA
ATOM      5  C   UNL     1      96.596 120.328 114.327  1.00  0.00     0.228 C 
ATOM      6  H   UNL     1      97.152 121.978 113.375  1.00  0.00     0.163 HD
BRANCH   5   7
ATOM      7  C   UNL     1      96.178 119.681 115.654  1.00  0.00     0.115 C 
ATOM      8  C   UNL     1      97.437 119.289 116.465  1.00  0.00     0.102 C 
ATOM      9  C   UNL     1      95.324 118.464 115.388  1.00  0.00    -0.007 C 
ATOM     10  N   UNL     1      97.163 118.474 117.665  1.00  0.00    -0.298 NA
ATOM     11  C   UNL     1      95.463 117.339 116.113  1.00  0.00    -0.026 C 
ATOM     12  C   UNL     1      96.457 117.217 117.303  1.00  0.00     0.091 C 
ATOM     13  C   UNL     1      94.758 116.088 115.754  1.00  0.00    -0.011 A 
ATOM     14  C   UNL     1      97.492 116.049 117.097  1.00  0.00     0.061 C 
ATOM     15  C   UNL     1      95.491 114.931 116.067  1.00  0.00     0.010 A 
ATOM     16  C   UNL     1      93.515 115.924 115.141  1.00  0.00     0.009 A 
ATOM     17  C   UNL     1      96.761 114.810 116.683  1.00  0.00    -0.020 A 
ATOM     18  C   UNL     1      95.008 113.665 115.784  1.00  0.00     0.046 A 
ATOM     19  C   UNL     1      93.031 114.638 114.861  1.00  0.00     0.003 A 
ATOM     20  C   UNL     1      97.043 113.466 116.763  1.00  0.00     0.087 A 
ATOM     21  N   UNL     1      95.976 112.784 116.216  1.00  0.00    -0.361 N 
ATOM     22  C   UNL     1      93.765 113.480 115.174  1.00  0.00     0.027 A 
ATOM     23  C   UNL     1      96.420 119.228 118.675  1.00  0.00     0.106 C 
ATOM     24  H   UNL     1      95.911 111.778 116.139  1.00  0.00     0.166 HD
ENDBRANCH   5   7
ENDBRANCH   1   3
BRANCH   1  25
ATOM     25  C   UNL     1      98.629 123.007 115.405  1.00  0.00     0.180 C 
BRANCH  25  26
ATOM     26  O   UNL     1      99.489 121.894 115.205  1.00  0.00    -0.394 OA
ATOM     27  H   UNL     1      99.323 121.560 114.305  1.00  0.00     0.210 HD
ENDBRANCH  25  26
ENDBRANCH   1  25
TORSDOF 4
ENDMDL
MODEL 20
REMARK VINA RESULT:    -7.086      9.477     11.694
REMARK INTER + INTRA:          -8.655
REMARK INTER:                  -8.163
REMARK INTRA:                  -0.491
REMARK UNBOUND:                -0.119
REMARK SMILES C[C@@H](CO)NC(=O)[C@@H]1C=C2c3cccc4[nH]cc(c34)C[C@H]2N(C)C1
REMARK SMILES IDX 2 1 1 2 5 3 7 4 6 5 8 7 24 8 9 9 22 10 10 11 21 12 11 13
REMARK SMILES IDX 20 14 19 15 12 16 18 17 15 18 13 19 17 20 16 21 14 22 23 23
REMARK SMILES IDX 3 25 4 26
REMARK H PARENT 5 6 16 24 4 27
ROOT
ATOM      1  C   UNL     1      97.681 122.049 117.813  1.00  0.00     0.104 C 
ATOM      2  C   UNL     1      99.107 122.225 118.334  1.00  0.00     0.033 C 
ENDROOT
BRANCH   1   3
ATOM      3  N   UNL     1      96.906 121.249 118.760  1.00  0.00    -0.351 N 
ATOM      4  O   UNL     1      95.201 119.967 119.399  1.00  0.00    -0.274 OA
ATOM      5  C   UNL     1      95.953 120.303 118.484  1.00  0.00     0.228 C 
ATOM      6  H   UNL     1      96.829 121.592 119.712  1.00  0.00     0.163 HD
BRANCH   5   7
ATOM      7  C   UNL     1      95.893 119.696 117.076  1.00  0.00     0.115 C 
ATOM      8  C   UNL     1      94.442 119.752 116.543  1.00  0.00     0.102 C 
ATOM      9  C   UNL     1      96.387 118.269 117.109  1.00  0.00    -0.007 C 
ATOM     10  N   UNL     1      94.223 119.013 115.283  1.00  0.00    -0.298 NA
ATOM     11  C   UNL     1      95.784 117.303 116.391  1.00  0.00    -0.026 C 
ATOM     12  C   UNL     1      94.585 117.580 115.440  1.00  0.00     0.091 C 
ATOM     13  C   UNL     1      96.146 115.877 116.545  1.00  0.00    -0.011 A 
ATOM     14  C   UNL     1      93.314 116.734 115.823  1.00  0.00     0.061 C 
ATOM     15  C   UNL     1      95.060 115.006 116.357  1.00  0.00     0.010 A 
ATOM     16  C   UNL     1      97.381 115.313 116.870  1.00  0.00     0.009 A 
ATOM     17  C   UNL     1      93.715 115.306 116.026  1.00  0.00    -0.020 A 
ATOM     18  C   UNL     1      95.194 113.635 116.484  1.00  0.00     0.046 A 
ATOM     19  C   UNL     1      97.511 113.921 116.993  1.00  0.00     0.003 A 
ATOM     20  C   UNL     1      93.040 114.109 115.960  1.00  0.00     0.087 A 
ATOM     21  N   UNL     1      93.945 113.106 116.240  1.00  0.00    -0.361 N 
ATOM     22  C   UNL     1      96.423 113.052 116.805  1.00  0.00     0.027 A 
ATOM     23  C   UNL     1      94.942 119.622 114.164  1.00  0.00     0.106 C 
ATOM     24  H   UNL     1      93.725 112.120 116.265  1.00  0.00     0.166 HD
ENDBRANCH   5   7
ENDBRANCH   1   3
BRANCH   1  25
ATOM     25  C   UNL     1      97.009 123.411 117.561  1.00  0.00     0.180 C 
BRANCH  25  26
ATOM     26  O   UNL     1      96.039 123.305 116.526  1.00  0.00    -0.394 OA
ATOM     27  H   UNL     1      96.303 123.924 115.822  1.00  0.00     0.210 HD
ENDBRANCH  25  26
ENDBRANCH   1  25
TORSDOF 4
ENDMDL
