MODEL 1
REMARK VINA RESULT:    -8.683      0.000      0.000
REMARK INTER + INTRA:         -10.542
REMARK INTER:                 -10.459
REMARK INTRA:                  -0.082
REMARK UNBOUND:                -0.082
REMARK SMILES C[C@@H](CO)NC(=O)[C@@H]1C=C2c3cccc4[nH]cc(c34)C[C@H]2N(C)C1
REMARK SMILES IDX 2 1 1 2 5 3 7 4 6 5 8 7 24 8 9 9 22 10 10 11 21 12 11 13
REMARK SMILES IDX 20 14 19 15 12 16 18 17 15 18 13 19 17 20 16 21 14 22 23 23
REMARK SMILES IDX 3 25 4 26
REMARK H PARENT 5 6 16 24 4 27
ROOT
ATOM      1  C   UNL     1     103.503 115.709  78.158  1.00  0.00     0.104 C 
ATOM      2  C   UNL     1     104.512 115.134  77.166  1.00  0.00     0.033 C 
ENDROOT
BRANCH   1   3
ATOM      3  N   UNL     1     102.289 116.111  77.449  1.00  0.00    -0.351 N 
ATOM      4  O   UNL     1     100.371 117.212  77.193  1.00  0.00    -0.274 OA
ATOM      5  C   UNL     1     101.502 117.209  77.678  1.00  0.00     0.228 C 
ATOM      6  H   UNL     1     101.793 115.397  76.926  1.00  0.00     0.163 HD
BRANCH   5   7
ATOM      7  C   UNL     1     102.074 118.379  78.490  1.00  0.00     0.115 C 
ATOM      8  C   UNL     1     102.111 118.007  79.991  1.00  0.00     0.102 C 
ATOM      9  C   UNL     1     101.234 119.616  78.274  1.00  0.00    -0.007 C 
ATOM     10  N   UNL     1     102.451 119.127  80.891  1.00  0.00    -0.298 NA
ATOM     11  C   UNL     1     100.944 120.450  79.290  1.00  0.00    -0.026 C 
ATOM     12  C   UNL     1     101.485 120.246  80.732  1.00  0.00     0.091 C 
ATOM     13  C   UNL     1      99.984 121.565  79.131  1.00  0.00    -0.011 A 
ATOM     14  C   UNL     1     100.328 120.123  81.791  1.00  0.00     0.061 C 
ATOM     15  C   UNL     1      99.260 121.843  80.303  1.00  0.00     0.010 A 
ATOM     16  C   UNL     1      99.702 122.329  77.997  1.00  0.00     0.009 A 
ATOM     17  C   UNL     1      99.343 121.230  81.577  1.00  0.00    -0.020 A 
ATOM     18  C   UNL     1      98.297 122.836  80.345  1.00  0.00     0.046 A 
ATOM     19  C   UNL     1      98.728 123.337  78.049  1.00  0.00     0.003 A 
ATOM     20  C   UNL     1      98.422 121.855  82.386  1.00  0.00     0.087 A 
ATOM     21  N   UNL     1      97.795 122.824  81.629  1.00  0.00    -0.361 N 
ATOM     22  C   UNL     1      98.003 123.613  79.222  1.00  0.00     0.027 A 
ATOM     23  C   UNL     1     103.827 119.582  80.695  1.00  0.00     0.106 C 
ATOM     24  H   UNL     1      97.067 123.439  81.966  1.00  0.00     0.166 HD
ENDBRANCH   5   7
ENDBRANCH   1   3
BRANCH   1  25
ATOM     25  C   UNL     1     103.182 114.698  79.274  1.00  0.00     0.180 C 
BRANCH  25  26
ATOM     26  O   UNL     1     104.072 113.592  79.216  1.00  0.00    -0.394 OA
ATOM     27  H   UNL     1     104.939 113.935  78.935  1.00  0.00     0.210 HD
ENDBRANCH  25  26
ENDBRANCH   1  25
TORSDOF 4
ENDMDL
MODEL 2
REMARK VINA RESULT:    -7.637      2.882      6.464
REMARK INTER + INTRA:          -9.282
REMARK INTER:                  -8.938
REMARK INTRA:                  -0.344
REMARK UNBOUND:                -0.082
REMARK SMILES C[C@@H](CO)NC(=O)[C@@H]1C=C2c3cccc4[nH]cc(c34)C[C@H]2N(C)C1
REMARK SMILES IDX 2 1 1 2 5 3 7 4 6 5 8 7 24 8 9 9 22 10 10 11 21 12 11 13
REMARK SMILES IDX 20 14 19 15 12 16 18 17 15 18 13 19 17 20 16 21 14 22 23 23
REMARK SMILES IDX 3 25 4 26
REMARK H PARENT 5 6 16 24 4 27
ROOT
ATOM      1  C   UNL     1      99.059 122.696  78.677  1.00  0.00     0.104 C 
ATOM      2  C   UNL     1      98.363 123.154  79.958  1.00  0.00     0.033 C 
ENDROOT
BRANCH   1   3
ATOM      3  N   UNL     1      98.408 121.491  78.166  1.00  0.00    -0.351 N 
ATOM      4  O   UNL     1      98.338 119.502  77.166  1.00  0.00    -0.274 OA
ATOM      5  C   UNL     1      98.983 120.283  77.866  1.00  0.00     0.228 C 
ATOM      6  H   UNL     1      97.507 121.600  77.712  1.00  0.00     0.163 HD
BRANCH   5   7
ATOM      7  C   UNL     1     100.370 119.956  78.437  1.00  0.00     0.115 C 
ATOM      8  C   UNL     1     100.928 118.682  77.761  1.00  0.00     0.102 C 
ATOM      9  C   UNL     1     100.278 119.762  79.933  1.00  0.00    -0.007 C 
ATOM     10  N   UNL     1     102.163 118.155  78.375  1.00  0.00    -0.298 NA
ATOM     11  C   UNL     1     100.971 118.791  80.556  1.00  0.00    -0.026 C 
ATOM     12  C   UNL     1     101.950 117.841  79.812  1.00  0.00     0.091 C 
ATOM     13  C   UNL     1     100.760 118.480  81.987  1.00  0.00    -0.011 A 
ATOM     14  C   UNL     1     101.558 116.326  79.987  1.00  0.00     0.061 C 
ATOM     15  C   UNL     1     100.935 117.119  82.289  1.00  0.00     0.010 A 
ATOM     16  C   UNL     1     100.395 119.334  83.029  1.00  0.00     0.009 A 
ATOM     17  C   UNL     1     101.298 116.048  81.435  1.00  0.00    -0.020 A 
ATOM     18  C   UNL     1     100.757 116.628  83.570  1.00  0.00     0.046 A 
ATOM     19  C   UNL     1     100.221 118.830  84.327  1.00  0.00     0.003 A 
ATOM     20  C   UNL     1     101.332 114.911  82.207  1.00  0.00     0.087 A 
ATOM     21  N   UNL     1     101.002 115.274  83.497  1.00  0.00    -0.361 N 
ATOM     22  C   UNL     1     100.396 117.468  84.627  1.00  0.00     0.027 A 
ATOM     23  C   UNL     1     103.292 119.069  78.194  1.00  0.00     0.106 C 
ATOM     24  H   UNL     1     100.945 114.637  84.280  1.00  0.00     0.166 HD
ENDBRANCH   5   7
ENDBRANCH   1   3
BRANCH   1  25
ATOM     25  C   UNL     1      99.064 123.812  77.617  1.00  0.00     0.180 C 
BRANCH  25  26
ATOM     26  O   UNL     1      97.840 124.535  77.647  1.00  0.00    -0.394 OA
ATOM     27  H   UNL     1      97.488 124.465  78.552  1.00  0.00     0.210 HD
ENDBRANCH  25  26
ENDBRANCH   1  25
TORSDOF 4
ENDMDL
MODEL 3
REMARK VINA RESULT:    -7.008      1.768      3.216
REMARK INTER + INTRA:          -8.525
REMARK INTER:                  -9.212
REMARK INTRA:                   0.687
REMARK UNBOUND:                -0.082
REMARK SMILES C[C@@H](CO)NC(=O)[C@@H]1C=C2c3cccc4[nH]cc(c34)C[C@H]2N(C)C1
REMARK SMILES IDX 2 1 1 2 5 3 7 4 6 5 8 7 24 8 9 9 22 10 10 11 21 12 11 13
REMARK SMILES IDX 20 14 19 15 12 16 18 17 15 18 13 19 17 20 16 21 14 22 23 23
REMARK SMILES IDX 3 25 4 26
REMARK H PARENT 5 6 16 24 4 27
ROOT
ATOM      1  C   UNL     1     104.917 115.281  78.420  1.00  0.00     0.104 C 
ATOM      2  C   UNL     1     104.007 115.377  77.196  1.00  0.00     0.033 C 
ENDROOT
BRANCH   1   3
ATOM      3  N   UNL     1     105.231 116.623  78.907  1.00  0.00    -0.351 N 
ATOM      4  O   UNL     1     104.958 118.827  79.069  1.00  0.00    -0.274 OA
ATOM      5  C   UNL     1     104.423 117.730  78.909  1.00  0.00     0.228 C 
ATOM      6  H   UNL     1     106.210 116.874  78.995  1.00  0.00     0.163 HD
BRANCH   5   7
ATOM      7  C   UNL     1     102.908 117.546  78.747  1.00  0.00     0.115 C 
ATOM      8  C   UNL     1     102.464 118.056  77.356  1.00  0.00     0.102 C 
ATOM      9  C   UNL     1     102.178 118.293  79.840  1.00  0.00    -0.007 C 
ATOM     10  N   UNL     1     101.001 118.119  77.165  1.00  0.00    -0.298 NA
ATOM     11  C   UNL     1     101.045 118.973  79.585  1.00  0.00    -0.026 C 
ATOM     12  C   UNL     1     100.371 118.999  78.185  1.00  0.00     0.091 C 
ATOM     13  C   UNL     1     100.417 119.847  80.600  1.00  0.00    -0.011 A 
ATOM     14  C   UNL     1     100.219 120.462  77.624  1.00  0.00     0.061 C 
ATOM     15  C   UNL     1      99.772 120.965  80.045  1.00  0.00     0.010 A 
ATOM     16  C   UNL     1     100.409 119.716  81.990  1.00  0.00     0.009 A 
ATOM     17  C   UNL     1      99.631 121.338  78.686  1.00  0.00    -0.020 A 
ATOM     18  C   UNL     1      99.147 121.912  80.837  1.00  0.00     0.046 A 
ATOM     19  C   UNL     1      99.769 120.678  82.786  1.00  0.00     0.003 A 
ATOM     20  C   UNL     1      98.922 122.517  78.663  1.00  0.00     0.087 A 
ATOM     21  N   UNL     1      98.636 122.855  79.970  1.00  0.00    -0.361 N 
ATOM     22  C   UNL     1      99.125 121.797  82.229  1.00  0.00     0.027 A 
ATOM     23  C   UNL     1     100.395 116.787  77.167  1.00  0.00     0.106 C 
ATOM     24  H   UNL     1      98.125 123.679  80.255  1.00  0.00     0.166 HD
ENDBRANCH   5   7
ENDBRANCH   1   3
BRANCH   1  25
ATOM     25  C   UNL     1     104.271 114.429  79.528  1.00  0.00     0.180 C 
BRANCH  25  26
ATOM     26  O   UNL     1     102.873 114.297  79.305  1.00  0.00    -0.394 OA
ATOM     27  H   UNL     1     102.471 114.040  80.154  1.00  0.00     0.210 HD
ENDBRANCH  25  26
ENDBRANCH   1  25
TORSDOF 4
ENDMDL
MODEL 4
REMARK VINA RESULT:    -6.946      2.982      6.622
REMARK INTER + INTRA:          -8.449
REMARK INTER:                  -9.723
REMARK INTRA:                   1.273
REMARK UNBOUND:                -0.082
REMARK SMILES C[C@@H](CO)NC(=O)[C@@H]1C=C2c3cccc4[nH]cc(c34)C[C@H]2N(C)C1
REMARK SMILES IDX 2 1 1 2 5 3 7 4 6 5 8 7 24 8 9 9 22 10 10 11 21 12 11 13
REMARK SMILES IDX 20 14 19 15 12 16 18 17 15 18 13 19 17 20 16 21 14 22 23 23
REMARK SMILES IDX 3 25 4 26
REMARK H PARENT 5 6 16 24 4 27
ROOT
ATOM      1  C   UNL     1      99.580 121.649  78.026  1.00  0.00     0.104 C 
ATOM      2  C   UNL     1      99.958 122.854  77.166  1.00  0.00     0.033 C 
ENDROOT
BRANCH   1   3
ATOM      3  N   UNL     1      99.490 122.054  79.428  1.00  0.00    -0.351 N 
ATOM      4  O   UNL     1      99.549 121.731  81.630  1.00  0.00    -0.274 OA
ATOM      5  C   UNL     1      99.986 121.403  80.528  1.00  0.00     0.228 C 
ATOM      6  H   UNL     1      98.763 122.715  79.680  1.00  0.00     0.163 HD
BRANCH   5   7
ATOM      7  C   UNL     1     101.071 120.335  80.334  1.00  0.00     0.115 C 
ATOM      8  C   UNL     1     101.186 119.971  78.835  1.00  0.00     0.102 C 
ATOM      9  C   UNL     1     100.738 119.107  81.150  1.00  0.00    -0.007 C 
ATOM     10  N   UNL     1     102.052 118.809  78.551  1.00  0.00    -0.298 NA
ATOM     11  C   UNL     1     100.937 117.869  80.663  1.00  0.00    -0.026 C 
ATOM     12  C   UNL     1     101.568 117.600  79.268  1.00  0.00     0.091 C 
ATOM     13  C   UNL     1     100.458 116.665  81.377  1.00  0.00    -0.011 A 
ATOM     14  C   UNL     1     100.620 116.756  78.338  1.00  0.00     0.061 C 
ATOM     15  C   UNL     1     100.073 115.626  80.514  1.00  0.00     0.010 A 
ATOM     16  C   UNL     1     100.321 116.453  82.751  1.00  0.00     0.009 A 
ATOM     17  C   UNL     1     100.106 115.574  79.098  1.00  0.00    -0.020 A 
ATOM     18  C   UNL     1      99.574 114.427  80.994  1.00  0.00     0.046 A 
ATOM     19  C   UNL     1      99.818 115.234  83.230  1.00  0.00     0.003 A 
ATOM     20  C   UNL     1      99.619 114.342  78.729  1.00  0.00     0.087 A 
ATOM     21  N   UNL     1      99.300 113.657  79.884  1.00  0.00    -0.361 N 
ATOM     22  C   UNL     1      99.433 114.195  82.364  1.00  0.00     0.027 A 
ATOM     23  C   UNL     1     103.453 119.087  78.866  1.00  0.00     0.106 C 
ATOM     24  H   UNL     1      98.917 112.723  79.915  1.00  0.00     0.166 HD
ENDBRANCH   5   7
ENDBRANCH   1   3
BRANCH   1  25
ATOM     25  C   UNL     1      98.260 121.017  77.548  1.00  0.00     0.180 C 
BRANCH  25  26
ATOM     26  O   UNL     1      98.457 119.654  77.196  1.00  0.00    -0.394 OA
ATOM     27  H   UNL     1      98.406 119.599  76.225  1.00  0.00     0.210 HD
ENDBRANCH  25  26
ENDBRANCH   1  25
TORSDOF 4
ENDMDL
MODEL 5
REMARK VINA RESULT:    -6.623      2.111      3.715
REMARK INTER + INTRA:          -8.060
REMARK INTER:                  -8.808
REMARK INTRA:                   0.748
REMARK UNBOUND:                -0.082
REMARK SMILES C[C@@H](CO)NC(=O)[C@@H]1C=C2c3cccc4[nH]cc(c34)C[C@H]2N(C)C1
REMARK SMILES IDX 2 1 1 2 5 3 7 4 6 5 8 7 24 8 9 9 22 10 10 11 21 12 11 13
REMARK SMILES IDX 20 14 19 15 12 16 18 17 15 18 13 19 17 20 16 21 14 22 23 23
REMARK SMILES IDX 3 25 4 26
REMARK H PARENT 5 6 16 24 4 27
ROOT
ATOM      1  C   UNL     1     104.506 115.664  77.623  1.00  0.00     0.104 C 
ATOM      2  C   UNL     1     103.046 115.760  77.179  1.00  0.00     0.033 C 
ENDROOT
BRANCH   1   3
ATOM      3  N   UNL     1     104.961 116.968  78.102  1.00  0.00    -0.351 N 
ATOM      4  O   UNL     1     104.832 119.173  78.384  1.00  0.00    -0.274 OA
ATOM      5  C   UNL     1     104.222 118.110  78.270  1.00  0.00     0.228 C 
ATOM      6  H   UNL     1     105.954 117.169  78.044  1.00  0.00     0.163 HD
BRANCH   5   7
ATOM      7  C   UNL     1     102.692 118.003  78.341  1.00  0.00     0.115 C 
ATOM      8  C   UNL     1     102.049 119.225  77.644  1.00  0.00     0.102 C 
ATOM      9  C   UNL     1     102.247 117.925  79.783  1.00  0.00    -0.007 C 
ATOM     10  N   UNL     1     100.588 119.336  77.828  1.00  0.00    -0.298 NA
ATOM     11  C   UNL     1     101.154 118.580  80.214  1.00  0.00    -0.026 C 
ATOM     12  C   UNL     1     100.239 119.411  79.271  1.00  0.00     0.091 C 
ATOM     13  C   UNL     1     100.805 118.652  81.650  1.00  0.00    -0.011 A 
ATOM     14  C   UNL     1     100.122 120.913  79.727  1.00  0.00     0.061 C 
ATOM     15  C   UNL     1     100.175 119.857  82.007  1.00  0.00     0.010 A 
ATOM     16  C   UNL     1     101.041 117.719  82.661  1.00  0.00     0.009 A 
ATOM     17  C   UNL     1      99.822 120.961  81.193  1.00  0.00    -0.020 A 
ATOM     18  C   UNL     1      99.795 120.122  83.311  1.00  0.00     0.046 A 
ATOM     19  C   UNL     1     100.649 117.993  83.980  1.00  0.00     0.003 A 
ATOM     20  C   UNL     1      99.232 121.894  82.014  1.00  0.00     0.087 A 
ATOM     21  N   UNL     1      99.223 121.376  83.293  1.00  0.00    -0.361 N 
ATOM     22  C   UNL     1     100.019 119.199  84.335  1.00  0.00     0.027 A 
ATOM     23  C   UNL     1      99.873 118.245  77.166  1.00  0.00     0.106 C 
ATOM     24  H   UNL     1      98.851 121.848  84.105  1.00  0.00     0.166 HD
ENDBRANCH   5   7
ENDBRANCH   1   3
BRANCH   1  25
ATOM     25  C   UNL     1     104.688 114.584  78.704  1.00  0.00     0.180 C 
BRANCH  25  26
ATOM     26  O   UNL     1     103.461 114.343  79.381  1.00  0.00    -0.394 OA
ATOM     27  H   UNL     1     103.295 115.111  79.957  1.00  0.00     0.210 HD
ENDBRANCH  25  26
ENDBRANCH   1  25
TORSDOF 4
ENDMDL
MODEL 6
REMARK VINA RESULT:    -6.612      4.581      6.828
REMARK INTER + INTRA:          -8.047
REMARK INTER:                  -7.689
REMARK INTRA:                  -0.358
REMARK UNBOUND:                -0.082
REMARK SMILES C[C@@H](CO)NC(=O)[C@@H]1C=C2c3cccc4[nH]cc(c34)C[C@H]2N(C)C1
REMARK SMILES IDX 2 1 1 2 5 3 7 4 6 5 8 7 24 8 9 9 22 10 10 11 21 12 11 13
REMARK SMILES IDX 20 14 19 15 12 16 18 17 15 18 13 19 17 20 16 21 14 22 23 23
REMARK SMILES IDX 3 25 4 26
REMARK H PARENT 5 6 16 24 4 27
ROOT
ATOM      1  C   UNL     1      99.374 118.400  87.338  1.00  0.00     0.104 C 
ATOM      2  C   UNL     1      98.812 119.777  86.984  1.00  0.00     0.033 C 
ENDROOT
BRANCH   1   3
ATOM      3  N   UNL     1     100.806 118.364  87.048  1.00  0.00    -0.351 N 
ATOM      4  O   UNL     1     102.657 117.550  86.115  1.00  0.00    -0.274 OA
ATOM      5  C   UNL     1     101.442 117.722  86.017  1.00  0.00     0.228 C 
ATOM      6  H   UNL     1     101.444 118.578  87.807  1.00  0.00     0.163 HD
BRANCH   5   7
ATOM      7  C   UNL     1     100.624 117.285  84.794  1.00  0.00     0.115 C 
ATOM      8  C   UNL     1     101.451 116.300  83.936  1.00  0.00     0.102 C 
ATOM      9  C   UNL     1     100.232 118.495  83.978  1.00  0.00    -0.007 C 
ATOM     10  N   UNL     1     100.846 115.971  82.629  1.00  0.00    -0.298 NA
ATOM     11  C   UNL     1     100.259 118.469  82.633  1.00  0.00    -0.026 C 
ATOM     12  C   UNL     1     100.635 117.199  81.819  1.00  0.00     0.091 C 
ATOM     13  C   UNL     1     100.046 119.691  81.826  1.00  0.00    -0.011 A 
ATOM     14  C   UNL     1     101.864 117.444  80.866  1.00  0.00     0.061 C 
ATOM     15  C   UNL     1     100.780 119.699  80.629  1.00  0.00     0.010 A 
ATOM     16  C   UNL     1      99.256 120.807  82.111  1.00  0.00     0.009 A 
ATOM     17  C   UNL     1     101.650 118.713  80.101  1.00  0.00    -0.020 A 
ATOM     18  C   UNL     1     100.732 120.769  79.752  1.00  0.00     0.046 A 
ATOM     19  C   UNL     1      99.208 121.885  81.215  1.00  0.00     0.003 A 
ATOM     20  C   UNL     1     102.128 119.196  78.905  1.00  0.00     0.087 A 
ATOM     21  N   UNL     1     101.567 120.440  78.705  1.00  0.00    -0.361 N 
ATOM     22  C   UNL     1      99.945 121.892  80.017  1.00  0.00     0.027 A 
ATOM     23  C   UNL     1      99.604 115.215  82.780  1.00  0.00     0.106 C 
ATOM     24  H   UNL     1     101.742 121.032  77.905  1.00  0.00     0.166 HD
ENDBRANCH   5   7
ENDBRANCH   1   3
BRANCH   1  25
ATOM     25  C   UNL     1      99.100 118.050  88.812  1.00  0.00     0.180 C 
BRANCH  25  26
ATOM     26  O   UNL     1      99.957 118.793  89.670  1.00  0.00    -0.394 OA
ATOM     27  H   UNL     1      99.475 119.598  89.930  1.00  0.00     0.210 HD
ENDBRANCH  25  26
ENDBRANCH   1  25
TORSDOF 4
ENDMDL
MODEL 7
REMARK VINA RESULT:    -6.233      2.956      6.157
REMARK INTER + INTRA:          -7.591
REMARK INTER:                  -7.956
REMARK INTRA:                   0.365
REMARK UNBOUND:                -0.082
REMARK SMILES C[C@@H](CO)NC(=O)[C@@H]1C=C2c3cccc4[nH]cc(c34)C[C@H]2N(C)C1
REMARK SMILES IDX 2 1 1 2 5 3 7 4 6 5 8 7 24 8 9 9 22 10 10 11 21 12 11 13
REMARK SMILES IDX 20 14 19 15 12 16 18 17 15 18 13 19 17 20 16 21 14 22 23 23
REMARK SMILES IDX 3 25 4 26
REMARK H PARENT 5 6 16 24 4 27
ROOT
ATOM      1  C   UNL     1     100.731 119.603  78.863  1.00  0.00     0.104 C 
ATOM      2  C   UNL     1      99.588 118.969  78.070  1.00  0.00     0.033 C 
ENDROOT
BRANCH   1   3
ATOM      3  N   UNL     1     101.728 120.145  77.942  1.00  0.00    -0.351 N 
ATOM      4  O   UNL     1     103.788 120.479  77.166  1.00  0.00    -0.274 OA
ATOM      5  C   UNL     1     103.016 119.716  77.746  1.00  0.00     0.228 C 
ATOM      6  H   UNL     1     101.594 121.093  77.609  1.00  0.00     0.163 HD
BRANCH   5   7
ATOM      7  C   UNL     1     103.415 118.313  78.223  1.00  0.00     0.115 C 
ATOM      8  C   UNL     1     103.001 117.263  77.166  1.00  0.00     0.102 C 
ATOM      9  C   UNL     1     102.756 118.014  79.549  1.00  0.00    -0.007 C 
ATOM     10  N   UNL     1     103.149 115.861  77.605  1.00  0.00    -0.298 NA
ATOM     11  C   UNL     1     102.249 116.797  79.819  1.00  0.00    -0.026 C 
ATOM     12  C   UNL     1     102.346 115.602  78.829  1.00  0.00     0.091 C 
ATOM     13  C   UNL     1     101.452 116.538  81.038  1.00  0.00    -0.011 A 
ATOM     14  C   UNL     1     100.931 115.031  78.443  1.00  0.00     0.061 C 
ATOM     15  C   UNL     1     100.447 115.575  80.849  1.00  0.00     0.010 A 
ATOM     16  C   UNL     1     101.554 117.131  82.298  1.00  0.00     0.009 A 
ATOM     17  C   UNL     1     100.125 114.828  79.688  1.00  0.00    -0.020 A 
ATOM     18  C   UNL     1      99.582 115.215  81.867  1.00  0.00     0.046 A 
ATOM     19  C   UNL     1     100.676 116.758  83.327  1.00  0.00     0.003 A 
ATOM     20  C   UNL     1      99.058 114.022  80.012  1.00  0.00     0.087 A 
ATOM     21  N   UNL     1      98.738 114.265  81.331  1.00  0.00    -0.361 N 
ATOM     22  C   UNL     1      99.670 115.794  83.135  1.00  0.00     0.027 A 
ATOM     23  C   UNL     1     104.552 115.500  77.805  1.00  0.00     0.106 C 
ATOM     24  H   UNL     1      97.989 113.813  81.837  1.00  0.00     0.166 HD
ENDBRANCH   5   7
ENDBRANCH   1   3
BRANCH   1  25
ATOM     25  C   UNL     1     100.208 120.694  79.815  1.00  0.00     0.180 C 
BRANCH  25  26
ATOM     26  O   UNL     1      99.223 121.490  79.170  1.00  0.00    -0.394 OA
ATOM     27  H   UNL     1      98.820 120.939  78.476  1.00  0.00     0.210 HD
ENDBRANCH  25  26
ENDBRANCH   1  25
TORSDOF 4
ENDMDL
MODEL 8
REMARK VINA RESULT:    -6.058      5.770      7.594
REMARK INTER + INTRA:          -7.380
REMARK INTER:                  -6.897
REMARK INTRA:                  -0.483
REMARK UNBOUND:                -0.082
REMARK SMILES C[C@@H](CO)NC(=O)[C@@H]1C=C2c3cccc4[nH]cc(c34)C[C@H]2N(C)C1
REMARK SMILES IDX 2 1 1 2 5 3 7 4 6 5 8 7 24 8 9 9 22 10 10 11 21 12 11 13
REMARK SMILES IDX 20 14 19 15 12 16 18 17 15 18 13 19 17 20 16 21 14 22 23 23
REMARK SMILES IDX 3 25 4 26
REMARK H PARENT 5 6 16 24 4 27
ROOT
ATOM      1  C   UNL     1     101.198 118.428  82.076  1.00  0.00     0.104 C 
ATOM      2  C   UNL     1     100.316 119.667  81.932  1.00  0.00     0.033 C 
ENDROOT
BRANCH   1   3
ATOM      3  N   UNL     1     100.416 117.330  82.641  1.00  0.00    -0.351 N 
ATOM      4  O   UNL     1      99.930 115.763  84.147  1.00  0.00    -0.274 OA
ATOM      5  C   UNL     1     100.411 116.876  83.935  1.00  0.00     0.228 C 
ATOM      6  H   UNL     1     100.048 116.636  81.999  1.00  0.00     0.163 HD
BRANCH   5   7
ATOM      7  C   UNL     1     100.967 117.780  85.043  1.00  0.00     0.115 C 
ATOM      8  C   UNL     1     101.454 116.915  86.230  1.00  0.00     0.102 C 
ATOM      9  C   UNL     1      99.903 118.750  85.500  1.00  0.00    -0.007 C 
ATOM     10  N   UNL     1     101.820 117.683  87.437  1.00  0.00    -0.298 NA
ATOM     11  C   UNL     1      99.748 119.057  86.801  1.00  0.00    -0.026 C 
ATOM     12  C   UNL     1     100.671 118.494  87.918  1.00  0.00     0.091 C 
ATOM     13  C   UNL     1      98.606 119.867  87.280  1.00  0.00    -0.011 A 
ATOM     14  C   UNL     1      99.866 117.703  89.014  1.00  0.00     0.061 C 
ATOM     15  C   UNL     1      98.173 119.506  88.567  1.00  0.00     0.010 A 
ATOM     16  C   UNL     1      97.915 120.887  86.624  1.00  0.00     0.009 A 
ATOM     17  C   UNL     1      98.686 118.519  89.444  1.00  0.00    -0.020 A 
ATOM     18  C   UNL     1      97.101 120.133  89.176  1.00  0.00     0.046 A 
ATOM     19  C   UNL     1      96.831 121.521  87.250  1.00  0.00     0.003 A 
ATOM     20  C   UNL     1      97.914 118.551  90.582  1.00  0.00     0.087 A 
ATOM     21  N   UNL     1      96.958 119.530  90.408  1.00  0.00    -0.361 N 
ATOM     22  C   UNL     1      96.399 121.158  88.538  1.00  0.00     0.027 A 
ATOM     23  C   UNL     1     103.001 118.516  87.213  1.00  0.00     0.106 C 
ATOM     24  H   UNL     1      96.249 119.773  91.086  1.00  0.00     0.166 HD
ENDBRANCH   5   7
ENDBRANCH   1   3
BRANCH   1  25
ATOM     25  C   UNL     1     101.817 118.026  80.725  1.00  0.00     0.180 C 
BRANCH  25  26
ATOM     26  O   UNL     1     101.399 116.720  80.352  1.00  0.00    -0.394 OA
ATOM     27  H   UNL     1     101.924 116.090  80.878  1.00  0.00     0.210 HD
ENDBRANCH  25  26
ENDBRANCH   1  25
TORSDOF 4
ENDMDL
MODEL 9
REMARK VINA RESULT:    -5.878      3.371      7.115
REMARK INTER + INTRA:          -7.163
REMARK INTER:                  -8.436
REMARK INTRA:                   1.273
REMARK UNBOUND:                -0.082
REMARK SMILES C[C@@H](CO)NC(=O)[C@@H]1C=C2c3cccc4[nH]cc(c34)C[C@H]2N(C)C1
REMARK SMILES IDX 2 1 1 2 5 3 7 4 6 5 8 7 24 8 9 9 22 10 10 11 21 12 11 13
REMARK SMILES IDX 20 14 19 15 12 16 18 17 15 18 13 19 17 20 16 21 14 22 23 23
REMARK SMILES IDX 3 25 4 26
REMARK H PARENT 5 6 16 24 4 27
ROOT
ATOM      1  C   UNL     1      98.290 122.692  78.718  1.00  0.00     0.104 C 
ATOM      2  C   UNL     1      99.237 123.698  78.063  1.00  0.00     0.033 C 
ENDROOT
BRANCH   1   3
ATOM      3  N   UNL     1      98.431 122.758  80.172  1.00  0.00    -0.351 N 
ATOM      4  O   UNL     1      98.927 121.960  82.190  1.00  0.00    -0.274 OA
ATOM      5  C   UNL     1      99.176 121.944  80.985  1.00  0.00     0.228 C 
ATOM      6  H   UNL     1      97.713 123.251  80.691  1.00  0.00     0.163 HD
BRANCH   5   7
ATOM      7  C   UNL     1     100.290 121.089  80.364  1.00  0.00     0.115 C 
ATOM      8  C   UNL     1      99.950 120.779  78.887  1.00  0.00     0.102 C 
ATOM      9  C   UNL     1     100.453 119.807  81.147  1.00  0.00    -0.007 C 
ATOM     10  N   UNL     1     100.846 119.795  78.247  1.00  0.00    -0.298 NA
ATOM     11  C   UNL     1     100.673 118.633  80.528  1.00  0.00    -0.026 C 
ATOM     12  C   UNL     1     100.833 118.506  78.987  1.00  0.00     0.091 C 
ATOM     13  C   UNL     1     100.663 117.350  81.265  1.00  0.00    -0.011 A 
ATOM     14  C   UNL     1      99.775 117.525  78.357  1.00  0.00     0.061 C 
ATOM     15  C   UNL     1     100.183 116.275  80.499  1.00  0.00     0.010 A 
ATOM     16  C   UNL     1     101.032 117.092  82.587  1.00  0.00     0.009 A 
ATOM     17  C   UNL     1      99.745 116.257  79.151  1.00  0.00    -0.020 A 
ATOM     18  C   UNL     1     100.075 114.999  81.022  1.00  0.00     0.046 A 
ATOM     19  C   UNL     1     100.923 115.794  83.109  1.00  0.00     0.003 A 
ATOM     20  C   UNL     1      99.368 114.964  78.868  1.00  0.00     0.087 A 
ATOM     21  N   UNL     1      99.571 114.213  80.007  1.00  0.00    -0.361 N 
ATOM     22  C   UNL     1     100.442 114.720  82.341  1.00  0.00     0.027 A 
ATOM     23  C   UNL     1     102.207 120.312  78.105  1.00  0.00     0.106 C 
ATOM     24  H   UNL     1      99.376 113.225  80.090  1.00  0.00     0.166 HD
ENDBRANCH   5   7
ENDBRANCH   1   3
BRANCH   1  25
ATOM     25  C   UNL     1      96.832 122.944  78.293  1.00  0.00     0.180 C 
BRANCH  25  26
ATOM     26  O   UNL     1      96.096 123.533  79.357  1.00  0.00    -0.394 OA
ATOM     27  H   UNL     1      96.675 123.534  80.140  1.00  0.00     0.210 HD
ENDBRANCH  25  26
ENDBRANCH   1  25
TORSDOF 4
ENDMDL
MODEL 10
REMARK VINA RESULT:    -5.870      3.202      6.637
REMARK INTER + INTRA:          -7.154
REMARK INTER:                  -8.198
REMARK INTRA:                   1.044
REMARK UNBOUND:                -0.082
REMARK SMILES C[C@@H](CO)NC(=O)[C@@H]1C=C2c3cccc4[nH]cc(c34)C[C@H]2N(C)C1
REMARK SMILES IDX 2 1 1 2 5 3 7 4 6 5 8 7 24 8 9 9 22 10 10 11 21 12 11 13
REMARK SMILES IDX 20 14 19 15 12 16 18 17 15 18 13 19 17 20 16 21 14 22 23 23
REMARK SMILES IDX 3 25 4 26
REMARK H PARENT 5 6 16 24 4 27
ROOT
ATOM      1  C   UNL     1      99.043 121.055  81.777  1.00  0.00     0.104 C 
ATOM      2  C   UNL     1      97.699 120.718  82.422  1.00  0.00     0.033 C 
ENDROOT
BRANCH   1   3
ATOM      3  N   UNL     1      98.822 121.811  80.545  1.00  0.00    -0.351 N 
ATOM      4  O   UNL     1      99.438 122.832  78.665  1.00  0.00    -0.274 OA
ATOM      5  C   UNL     1      99.653 121.917  79.460  1.00  0.00     0.228 C 
ATOM      6  H   UNL     1      98.140 122.562  80.571  1.00  0.00     0.163 HD
BRANCH   5   7
ATOM      7  C   UNL     1     100.773 120.885  79.276  1.00  0.00     0.115 C 
ATOM      8  C   UNL     1     100.667 120.240  77.874  1.00  0.00     0.102 C 
ATOM      9  C   UNL     1     100.681 119.827  80.351  1.00  0.00    -0.007 C 
ATOM     10  N   UNL     1     101.565 119.088  77.660  1.00  0.00    -0.298 NA
ATOM     11  C   UNL     1     100.896 118.528  80.074  1.00  0.00    -0.026 C 
ATOM     12  C   UNL     1     101.307 118.021  78.663  1.00  0.00     0.091 C 
ATOM     13  C   UNL     1     100.642 117.466  81.072  1.00  0.00    -0.011 A 
ATOM     14  C   UNL     1     100.289 116.968  78.089  1.00  0.00     0.061 C 
ATOM     15  C   UNL     1     100.204 116.261  80.499  1.00  0.00     0.010 A 
ATOM     16  C   UNL     1     100.752 117.521  82.463  1.00  0.00     0.009 A 
ATOM     17  C   UNL     1     100.006 115.934  79.134  1.00  0.00    -0.020 A 
ATOM     18  C   UNL     1      99.891 115.157  81.273  1.00  0.00     0.046 A 
ATOM     19  C   UNL     1     100.437 116.397  83.241  1.00  0.00     0.003 A 
ATOM     20  C   UNL     1      99.566 114.631  79.092  1.00  0.00     0.087 A 
ATOM     21  N   UNL     1      99.500 114.172  80.391  1.00  0.00    -0.361 N 
ATOM     22  C   UNL     1      99.998 115.192  82.665  1.00  0.00     0.027 A 
ATOM     23  C   UNL     1     102.972 119.489  77.663  1.00  0.00     0.106 C 
ATOM     24  H   UNL     1      99.204 113.245  80.662  1.00  0.00     0.166 HD
ENDBRANCH   5   7
ENDBRANCH   1   3
BRANCH   1  25
ATOM     25  C   UNL     1      99.946 121.835  82.749  1.00  0.00     0.180 C 
BRANCH  25  26
ATOM     26  O   UNL     1      99.377 121.855  84.052  1.00  0.00    -0.394 OA
ATOM     27  H   UNL     1      99.985 121.368  84.637  1.00  0.00     0.210 HD
ENDBRANCH  25  26
ENDBRANCH   1  25
TORSDOF 4
ENDMDL
MODEL 11
REMARK VINA RESULT:    -5.759      2.090      2.399
REMARK INTER + INTRA:          -7.020
REMARK INTER:                  -8.161
REMARK INTRA:                   1.141
REMARK UNBOUND:                -0.082
REMARK SMILES C[C@@H](CO)NC(=O)[C@@H]1C=C2c3cccc4[nH]cc(c34)C[C@H]2N(C)C1
REMARK SMILES IDX 2 1 1 2 5 3 7 4 6 5 8 7 24 8 9 9 22 10 10 11 21 12 11 13
REMARK SMILES IDX 20 14 19 15 12 16 18 17 15 18 13 19 17 20 16 21 14 22 23 23
REMARK SMILES IDX 3 25 4 26
REMARK H PARENT 5 6 16 24 4 27
ROOT
ATOM      1  C   UNL     1     100.301 115.470  81.284  1.00  0.00     0.104 C 
ATOM      2  C   UNL     1     101.698 114.941  81.609  1.00  0.00     0.033 C 
ENDROOT
BRANCH   1   3
ATOM      3  N   UNL     1     100.130 115.547  79.834  1.00  0.00    -0.351 N 
ATOM      4  O   UNL     1      99.799 116.586  77.893  1.00  0.00    -0.274 OA
ATOM      5  C   UNL     1     100.281 116.643  79.023  1.00  0.00     0.228 C 
ATOM      6  H   UNL     1      99.575 114.824  79.388  1.00  0.00     0.163 HD
BRANCH   5   7
ATOM      7  C   UNL     1     101.063 117.855  79.548  1.00  0.00     0.115 C 
ATOM      8  C   UNL     1     100.869 117.980  81.078  1.00  0.00     0.102 C 
ATOM      9  C   UNL     1     100.593 119.111  78.853  1.00  0.00    -0.007 C 
ATOM     10  N   UNL     1     101.406 119.225  81.662  1.00  0.00    -0.298 NA
ATOM     11  C   UNL     1     100.439 120.266  79.526  1.00  0.00    -0.026 C 
ATOM     12  C   UNL     1     100.780 120.419  81.035  1.00  0.00     0.091 C 
ATOM     13  C   UNL     1      99.818 121.455  78.900  1.00  0.00    -0.011 A 
ATOM     14  C   UNL     1      99.541 120.894  81.880  1.00  0.00     0.061 C 
ATOM     15  C   UNL     1      99.089 122.241  79.808  1.00  0.00     0.010 A 
ATOM     16  C   UNL     1      99.844 121.861  77.564  1.00  0.00     0.009 A 
ATOM     17  C   UNL     1      98.898 122.062  81.200  1.00  0.00    -0.020 A 
ATOM     18  C   UNL     1      98.416 123.382  79.406  1.00  0.00     0.046 A 
ATOM     19  C   UNL     1      99.162 123.020  77.166  1.00  0.00     0.003 A 
ATOM     20  C   UNL     1      98.102 123.098  81.634  1.00  0.00     0.087 A 
ATOM     21  N   UNL     1      97.816 123.888  80.540  1.00  0.00    -0.361 N 
ATOM     22  C   UNL     1      98.433 123.806  78.075  1.00  0.00     0.027 A 
ATOM     23  C   UNL     1     102.865 119.283  81.573  1.00  0.00     0.106 C 
ATOM     24  H   UNL     1      97.245 124.722  80.563  1.00  0.00     0.166 HD
ENDBRANCH   5   7
ENDBRANCH   1   3
BRANCH   1  25
ATOM     25  C   UNL     1      99.211 114.591  81.923  1.00  0.00     0.180 C 
BRANCH  25  26
ATOM     26  O   UNL     1      99.795 113.501  82.624  1.00  0.00    -0.394 OA
ATOM     27  H   UNL     1      99.127 112.793  82.661  1.00  0.00     0.210 HD
ENDBRANCH  25  26
ENDBRANCH   1  25
TORSDOF 4
ENDMDL
