MODEL 1
REMARK VINA RESULT:    -9.556      0.000      0.000
REMARK INTER + INTRA:         -12.023
REMARK INTER:                 -11.511
REMARK INTRA:                  -0.511
REMARK UNBOUND:                -0.511
REMARK SMILES C[C@@H](CO)NC(=O)[C@@H]1C=C2c3cccc4[nH]cc(c34)C[C@H]2N(C)C1
REMARK SMILES IDX 2 1 1 2 5 3 7 4 6 5 8 7 24 8 9 9 22 10 10 11 21 12 11 13
REMARK SMILES IDX 20 14 19 15 12 16 18 17 15 18 13 19 17 20 16 21 14 22 23 23
REMARK SMILES IDX 3 25 4 26
REMARK H PARENT 5 6 16 24 4 27
ROOT
ATOM      1  C   UNL     1     -24.905 -17.566 146.707  1.00  0.00     0.104 C 
ATOM      2  C   UNL     1     -24.496 -18.985 146.315  1.00  0.00     0.033 C 
ENDROOT
BRANCH   1   3
ATOM      3  N   UNL     1     -26.296 -17.331 146.324  1.00  0.00    -0.351 N 
ATOM      4  O   UNL     1     -28.127 -16.100 146.024  1.00  0.00    -0.274 OA
ATOM      5  C   UNL     1     -26.897 -16.137 146.019  1.00  0.00     0.228 C 
ATOM      6  H   UNL     1     -26.977 -18.042 146.568  1.00  0.00     0.163 HD
BRANCH   5   7
ATOM      7  C   UNL     1     -26.017 -14.931 145.660  1.00  0.00     0.115 C 
ATOM      8  C   UNL     1     -26.285 -13.774 146.651  1.00  0.00     0.102 C 
ATOM      9  C   UNL     1     -26.303 -14.488 144.244  1.00  0.00    -0.007 C 
ATOM     10  N   UNL     1     -25.649 -12.493 146.283  1.00  0.00    -0.298 NA
ATOM     11  C   UNL     1     -26.366 -13.184 143.918  1.00  0.00    -0.026 C 
ATOM     12  C   UNL     1     -26.100 -12.044 144.940  1.00  0.00     0.091 C 
ATOM     13  C   UNL     1     -26.813 -12.737 142.581  1.00  0.00    -0.011 A 
ATOM     14  C   UNL     1     -27.326 -11.066 145.075  1.00  0.00     0.061 C 
ATOM     15  C   UNL     1     -27.502 -11.513 142.608  1.00  0.00     0.010 A 
ATOM     16  C   UNL     1     -26.664 -13.370 141.345  1.00  0.00     0.009 A 
ATOM     17  C   UNL     1     -27.793 -10.670 143.709  1.00  0.00    -0.020 A 
ATOM     18  C   UNL     1     -28.020 -10.942 141.458  1.00  0.00     0.046 A 
ATOM     19  C   UNL     1     -27.187 -12.783 140.184  1.00  0.00     0.003 A 
ATOM     20  C   UNL     1     -28.493  -9.592 143.217  1.00  0.00     0.087 A 
ATOM     21  N   UNL     1     -28.625  -9.769 141.855  1.00  0.00    -0.361 N 
ATOM     22  C   UNL     1     -27.877 -11.559 140.213  1.00  0.00     0.027 A 
ATOM     23  C   UNL     1     -24.190 -12.572 146.354  1.00  0.00     0.106 C 
ATOM     24  H   UNL     1     -29.100  -9.130 141.233  1.00  0.00     0.166 HD
ENDBRANCH   5   7
ENDBRANCH   1   3
BRANCH   1  25
ATOM     25  C   UNL     1     -24.699 -17.325 148.214  1.00  0.00     0.180 C 
BRANCH  25  26
ATOM     26  O   UNL     1     -24.137 -16.039 148.441  1.00  0.00    -0.394 OA
ATOM     27  H   UNL     1     -24.223 -15.537 147.611  1.00  0.00     0.210 HD
ENDBRANCH  25  26
ENDBRANCH   1  25
TORSDOF 4
ENDMDL
MODEL 2
REMARK VINA RESULT:    -8.612      3.490      7.576
REMARK INTER + INTRA:         -10.885
REMARK INTER:                 -10.462
REMARK INTRA:                  -0.423
REMARK UNBOUND:                -0.511
REMARK SMILES C[C@@H](CO)NC(=O)[C@@H]1C=C2c3cccc4[nH]cc(c34)C[C@H]2N(C)C1
REMARK SMILES IDX 2 1 1 2 5 3 7 4 6 5 8 7 24 8 9 9 22 10 10 11 21 12 11 13
REMARK SMILES IDX 20 14 19 15 12 16 18 17 15 18 13 19 17 20 16 21 14 22 23 23
REMARK SMILES IDX 3 25 4 26
REMARK H PARENT 5 6 16 24 4 27
ROOT
ATOM      1  C   UNL     1     -29.553  -7.917 142.747  1.00  0.00     0.104 C 
ATOM      2  C   UNL     1     -30.828  -7.767 143.577  1.00  0.00     0.033 C 
ENDROOT
BRANCH   1   3
ATOM      3  N   UNL     1     -29.631  -9.134 141.941  1.00  0.00    -0.351 N 
ATOM      4  O   UNL     1     -28.826 -10.975 140.982  1.00  0.00    -0.274 OA
ATOM      5  C   UNL     1     -28.767 -10.198 141.935  1.00  0.00     0.228 C 
ATOM      6  H   UNL     1     -30.195  -9.104 141.099  1.00  0.00     0.163 HD
BRANCH   5   7
ATOM      7  C   UNL     1     -27.805 -10.384 143.117  1.00  0.00     0.115 C 
ATOM      8  C   UNL     1     -26.706 -11.406 142.743  1.00  0.00     0.102 C 
ATOM      9  C   UNL     1     -28.569 -10.853 144.334  1.00  0.00    -0.007 C 
ATOM     10  N   UNL     1     -25.845 -11.818 143.869  1.00  0.00    -0.298 NA
ATOM     11  C   UNL     1     -28.063 -11.789 145.158  1.00  0.00    -0.026 C 
ATOM     12  C   UNL     1     -26.653 -12.414 144.964  1.00  0.00     0.091 C 
ATOM     13  C   UNL     1     -28.868 -12.381 146.250  1.00  0.00    -0.011 A 
ATOM     14  C   UNL     1     -26.712 -13.979 144.810  1.00  0.00     0.061 C 
ATOM     15  C   UNL     1     -28.548 -13.724 146.507  1.00  0.00     0.010 A 
ATOM     16  C   UNL     1     -29.885 -11.798 147.009  1.00  0.00     0.009 A 
ATOM     17  C   UNL     1     -27.574 -14.550 145.893  1.00  0.00    -0.020 A 
ATOM     18  C   UNL     1     -29.210 -14.458 147.476  1.00  0.00     0.046 A 
ATOM     19  C   UNL     1     -30.548 -12.547 147.993  1.00  0.00     0.003 A 
ATOM     20  C   UNL     1     -27.656 -15.785 146.494  1.00  0.00     0.087 A 
ATOM     21  N   UNL     1     -28.649 -15.717 147.449  1.00  0.00    -0.361 N 
ATOM     22  C   UNL     1     -30.228 -13.892 148.248  1.00  0.00     0.027 A 
ATOM     23  C   UNL     1     -25.024 -10.711 144.358  1.00  0.00     0.106 C 
ATOM     24  H   UNL     1     -28.931 -16.483 148.046  1.00  0.00     0.166 HD
ENDBRANCH   5   7
ENDBRANCH   1   3
BRANCH   1  25
ATOM     25  C   UNL     1     -29.319  -6.681 141.860  1.00  0.00     0.180 C 
BRANCH  25  26
ATOM     26  O   UNL     1     -29.627  -6.974 140.504  1.00  0.00    -0.394 OA
ATOM     27  H   UNL     1     -30.334  -6.362 140.231  1.00  0.00     0.210 HD
ENDBRANCH  25  26
ENDBRANCH   1  25
TORSDOF 4
ENDMDL
MODEL 3
REMARK VINA RESULT:    -8.514      2.756      6.949
REMARK INTER + INTRA:         -10.768
REMARK INTER:                 -10.277
REMARK INTRA:                  -0.490
REMARK UNBOUND:                -0.511
REMARK SMILES C[C@@H](CO)NC(=O)[C@@H]1C=C2c3cccc4[nH]cc(c34)C[C@H]2N(C)C1
REMARK SMILES IDX 2 1 1 2 5 3 7 4 6 5 8 7 24 8 9 9 22 10 10 11 21 12 11 13
REMARK SMILES IDX 20 14 19 15 12 16 18 17 15 18 13 19 17 20 16 21 14 22 23 23
REMARK SMILES IDX 3 25 4 26
REMARK H PARENT 5 6 16 24 4 27
ROOT
ATOM      1  C   UNL     1     -27.653 -10.642 141.906  1.00  0.00     0.104 C 
ATOM      2  C   UNL     1     -28.926 -10.503 142.742  1.00  0.00     0.033 C 
ENDROOT
BRANCH   1   3
ATOM      3  N   UNL     1     -27.447 -12.046 141.554  1.00  0.00    -0.351 N 
ATOM      4  O   UNL     1     -26.325 -13.968 141.494  1.00  0.00    -0.274 OA
ATOM      5  C   UNL     1     -26.573 -12.938 142.120  1.00  0.00     0.228 C 
ATOM      6  H   UNL     1     -27.749 -12.349 140.635  1.00  0.00     0.163 HD
BRANCH   5   7
ATOM      7  C   UNL     1     -25.980 -12.626 143.501  1.00  0.00     0.115 C 
ATOM      8  C   UNL     1     -24.621 -13.346 143.663  1.00  0.00     0.102 C 
ATOM      9  C   UNL     1     -26.940 -13.062 144.584  1.00  0.00    -0.007 C 
ATOM     10  N   UNL     1     -24.055 -13.286 145.025  1.00  0.00    -0.298 NA
ATOM     11  C   UNL     1     -26.500 -13.651 145.711  1.00  0.00    -0.026 C 
ATOM     12  C   UNL     1     -24.993 -13.877 146.015  1.00  0.00     0.091 C 
ATOM     13  C   UNL     1     -27.435 -14.236 146.698  1.00  0.00    -0.011 A 
ATOM     14  C   UNL     1     -24.654 -15.395 146.250  1.00  0.00     0.061 C 
ATOM     15  C   UNL     1     -26.913 -15.365 147.352  1.00  0.00     0.010 A 
ATOM     16  C   UNL     1     -28.731 -13.837 147.027  1.00  0.00     0.009 A 
ATOM     17  C   UNL     1     -25.643 -15.979 147.210  1.00  0.00    -0.020 A 
ATOM     18  C   UNL     1     -27.647 -16.066 148.293  1.00  0.00     0.046 A 
ATOM     19  C   UNL     1     -29.467 -14.550 147.985  1.00  0.00     0.003 A 
ATOM     20  C   UNL     1     -25.619 -17.056 148.066  1.00  0.00     0.087 A 
ATOM     21  N   UNL     1     -26.837 -17.099 148.714  1.00  0.00    -0.361 N 
ATOM     22  C   UNL     1     -28.944 -15.680 148.638  1.00  0.00     0.027 A 
ATOM     23  C   UNL     1     -23.679 -11.922 145.398  1.00  0.00     0.106 C 
ATOM     24  H   UNL     1     -27.101 -17.791 149.402  1.00  0.00     0.166 HD
ENDBRANCH   5   7
ENDBRANCH   1   3
BRANCH   1  25
ATOM     25  C   UNL     1     -27.717  -9.760 140.646  1.00  0.00     0.180 C 
BRANCH  25  26
ATOM     26  O   UNL     1     -26.698 -10.130 139.726  1.00  0.00    -0.394 OA
ATOM     27  H   UNL     1     -26.453  -9.327 139.231  1.00  0.00     0.210 HD
ENDBRANCH  25  26
ENDBRANCH   1  25
TORSDOF 4
ENDMDL
MODEL 4
REMARK VINA RESULT:    -8.434      3.046      7.268
REMARK INTER + INTRA:         -10.671
REMARK INTER:                 -10.612
REMARK INTRA:                  -0.059
REMARK UNBOUND:                -0.511
REMARK SMILES C[C@@H](CO)NC(=O)[C@@H]1C=C2c3cccc4[nH]cc(c34)C[C@H]2N(C)C1
REMARK SMILES IDX 2 1 1 2 5 3 7 4 6 5 8 7 24 8 9 9 22 10 10 11 21 12 11 13
REMARK SMILES IDX 20 14 19 15 12 16 18 17 15 18 13 19 17 20 16 21 14 22 23 23
REMARK SMILES IDX 3 25 4 26
REMARK H PARENT 5 6 16 24 4 27
ROOT
ATOM      1  C   UNL     1     -29.737  -8.696 143.643  1.00  0.00     0.104 C 
ATOM      2  C   UNL     1     -30.436  -9.268 144.876  1.00  0.00     0.033 C 
ENDROOT
BRANCH   1   3
ATOM      3  N   UNL     1     -29.651  -9.722 142.605  1.00  0.00    -0.351 N 
ATOM      4  O   UNL     1     -28.599 -11.162 141.272  1.00  0.00    -0.274 OA
ATOM      5  C   UNL     1     -28.620 -10.593 142.363  1.00  0.00     0.228 C 
ATOM      6  H   UNL     1     -30.259  -9.626 141.798  1.00  0.00     0.163 HD
BRANCH   5   7
ATOM      7  C   UNL     1     -27.577 -10.835 143.462  1.00  0.00     0.115 C 
ATOM      8  C   UNL     1     -26.380 -11.626 142.882  1.00  0.00     0.102 C 
ATOM      9  C   UNL     1     -28.204 -11.593 144.609  1.00  0.00    -0.007 C 
ATOM     10  N   UNL     1     -25.411 -12.095 143.892  1.00  0.00    -0.298 NA
ATOM     11  C   UNL     1     -27.537 -12.574 145.246  1.00  0.00    -0.026 C 
ATOM     12  C   UNL     1     -26.073 -12.964 144.900  1.00  0.00     0.091 C 
ATOM     13  C   UNL     1     -28.196 -13.437 146.251  1.00  0.00    -0.011 A 
ATOM     14  C   UNL     1     -25.942 -14.477 144.488  1.00  0.00     0.061 C 
ATOM     15  C   UNL     1     -27.695 -14.749 146.268  1.00  0.00     0.010 A 
ATOM     16  C   UNL     1     -29.234 -13.127 147.133  1.00  0.00     0.009 A 
ATOM     17  C   UNL     1     -26.660 -15.326 145.490  1.00  0.00    -0.020 A 
ATOM     18  C   UNL     1     -28.202 -15.711 147.123  1.00  0.00     0.046 A 
ATOM     19  C   UNL     1     -29.739 -14.106 148.000  1.00  0.00     0.003 A 
ATOM     20  C   UNL     1     -26.551 -16.641 145.878  1.00  0.00     0.087 A 
ATOM     21  N   UNL     1     -27.489 -16.863 146.866  1.00  0.00    -0.361 N 
ATOM     22  C   UNL     1     -29.237 -15.420 148.015  1.00  0.00     0.027 A 
ATOM     23  C   UNL     1     -24.710 -10.981 144.530  1.00  0.00     0.106 C 
ATOM     24  H   UNL     1     -27.636 -17.745 147.335  1.00  0.00     0.166 HD
ENDBRANCH   5   7
ENDBRANCH   1   3
BRANCH   1  25
ATOM     25  C   UNL     1     -30.466  -7.444 143.122  1.00  0.00     0.180 C 
BRANCH  25  26
ATOM     26  O   UNL     1     -31.744  -7.788 142.604  1.00  0.00    -0.394 OA
ATOM     27  H   UNL     1     -31.976  -8.661 142.970  1.00  0.00     0.210 HD
ENDBRANCH  25  26
ENDBRANCH   1  25
TORSDOF 4
ENDMDL
MODEL 5
REMARK VINA RESULT:    -8.222      3.144      5.480
REMARK INTER + INTRA:         -10.416
REMARK INTER:                 -10.216
REMARK INTRA:                  -0.200
REMARK UNBOUND:                -0.511
REMARK SMILES C[C@@H](CO)NC(=O)[C@@H]1C=C2c3cccc4[nH]cc(c34)C[C@H]2N(C)C1
REMARK SMILES IDX 2 1 1 2 5 3 7 4 6 5 8 7 24 8 9 9 22 10 10 11 21 12 11 13
REMARK SMILES IDX 20 14 19 15 12 16 18 17 15 18 13 19 17 20 16 21 14 22 23 23
REMARK SMILES IDX 3 25 4 26
REMARK H PARENT 5 6 16 24 4 27
ROOT
ATOM      1  C   UNL     1     -26.764 -18.647 151.606  1.00  0.00     0.104 C 
ATOM      2  C   UNL     1     -28.130 -17.994 151.393  1.00  0.00     0.033 C 
ENDROOT
BRANCH   1   3
ATOM      3  N   UNL     1     -25.739 -17.612 151.734  1.00  0.00    -0.351 N 
ATOM      4  O   UNL     1     -23.896 -16.513 151.142  1.00  0.00    -0.274 OA
ATOM      5  C   UNL     1     -24.879 -17.154 150.770  1.00  0.00     0.228 C 
ATOM      6  H   UNL     1     -25.409 -17.391 152.667  1.00  0.00     0.163 HD
BRANCH   5   7
ATOM      7  C   UNL     1     -25.198 -17.430 149.295  1.00  0.00     0.115 C 
ATOM      8  C   UNL     1     -23.971 -17.081 148.419  1.00  0.00     0.102 C 
ATOM      9  C   UNL     1     -26.399 -16.619 148.867  1.00  0.00    -0.007 C 
ATOM     10  N   UNL     1     -24.228 -17.111 146.966  1.00  0.00    -0.298 NA
ATOM     11  C   UNL     1     -26.447 -16.026 147.659  1.00  0.00    -0.026 C 
ATOM     12  C   UNL     1     -25.319 -16.170 146.600  1.00  0.00     0.091 C 
ATOM     13  C   UNL     1     -27.535 -15.092 147.295  1.00  0.00    -0.011 A 
ATOM     14  C   UNL     1     -24.720 -14.778 146.175  1.00  0.00     0.061 C 
ATOM     15  C   UNL     1     -27.117 -14.067 146.429  1.00  0.00     0.010 A 
ATOM     16  C   UNL     1     -28.868 -15.087 147.710  1.00  0.00     0.009 A 
ATOM     17  C   UNL     1     -25.839 -13.834 145.862  1.00  0.00    -0.020 A 
ATOM     18  C   UNL     1     -27.985 -13.081 145.995  1.00  0.00     0.046 A 
ATOM     19  C   UNL     1     -29.744 -14.087 147.262  1.00  0.00     0.003 A 
ATOM     20  C   UNL     1     -25.942 -12.701 145.089  1.00  0.00     0.087 A 
ATOM     21  N   UNL     1     -27.244 -12.254 145.178  1.00  0.00    -0.361 N 
ATOM     22  C   UNL     1     -29.323 -13.061 146.397  1.00  0.00     0.027 A 
ATOM     23  C   UNL     1     -24.515 -18.466 146.493  1.00  0.00     0.106 C 
ATOM     24  H   UNL     1     -27.606 -11.433 144.712  1.00  0.00     0.166 HD
ENDBRANCH   5   7
ENDBRANCH   1   3
BRANCH   1  25
ATOM     25  C   UNL     1     -26.776 -19.569 152.839  1.00  0.00     0.180 C 
BRANCH  25  26
ATOM     26  O   UNL     1     -27.405 -20.806 152.531  1.00  0.00    -0.394 OA
ATOM     27  H   UNL     1     -26.888 -21.506 152.968  1.00  0.00     0.210 HD
ENDBRANCH  25  26
ENDBRANCH   1  25
TORSDOF 4
ENDMDL
MODEL 6
REMARK VINA RESULT:    -8.104      3.082      7.062
REMARK INTER + INTRA:         -10.273
REMARK INTER:                 -11.179
REMARK INTRA:                   0.906
REMARK UNBOUND:                -0.511
REMARK SMILES C[C@@H](CO)NC(=O)[C@@H]1C=C2c3cccc4[nH]cc(c34)C[C@H]2N(C)C1
REMARK SMILES IDX 2 1 1 2 5 3 7 4 6 5 8 7 24 8 9 9 22 10 10 11 21 12 11 13
REMARK SMILES IDX 20 14 19 15 12 16 18 17 15 18 13 19 17 20 16 21 14 22 23 23
REMARK SMILES IDX 3 25 4 26
REMARK H PARENT 5 6 16 24 4 27
ROOT
ATOM      1  C   UNL     1     -27.669 -10.403 140.459  1.00  0.00     0.104 C 
ATOM      2  C   UNL     1     -27.335  -9.294 139.461  1.00  0.00     0.033 C 
ENDROOT
BRANCH   1   3
ATOM      3  N   UNL     1     -28.943 -10.108 141.113  1.00  0.00    -0.351 N 
ATOM      4  O   UNL     1     -30.481 -10.293 142.712  1.00  0.00    -0.274 OA
ATOM      5  C   UNL     1     -29.285 -10.313 142.425  1.00  0.00     0.228 C 
ATOM      6  H   UNL     1     -29.762 -10.009 140.523  1.00  0.00     0.163 HD
BRANCH   5   7
ATOM      7  C   UNL     1     -28.171 -10.521 143.461  1.00  0.00     0.115 C 
ATOM      8  C   UNL     1     -27.064 -11.423 142.865  1.00  0.00     0.102 C 
ATOM      9  C   UNL     1     -28.743 -11.145 144.713  1.00  0.00    -0.007 C 
ATOM     10  N   UNL     1     -26.042 -11.860 143.837  1.00  0.00    -0.298 NA
ATOM     11  C   UNL     1     -28.077 -12.105 145.381  1.00  0.00    -0.026 C 
ATOM     12  C   UNL     1     -26.665 -12.603 144.964  1.00  0.00     0.091 C 
ATOM     13  C   UNL     1     -28.697 -12.843 146.504  1.00  0.00    -0.011 A 
ATOM     14  C   UNL     1     -26.641 -14.151 144.676  1.00  0.00     0.061 C 
ATOM     15  C   UNL     1     -28.261 -14.176 146.598  1.00  0.00     0.010 A 
ATOM     16  C   UNL     1     -29.645 -12.404 147.430  1.00  0.00     0.009 A 
ATOM     17  C   UNL     1     -27.320 -14.872 145.799  1.00  0.00    -0.020 A 
ATOM     18  C   UNL     1     -28.745 -15.034 147.569  1.00  0.00     0.046 A 
ATOM     19  C   UNL     1     -30.128 -13.279 148.414  1.00  0.00     0.003 A 
ATOM     20  C   UNL     1     -27.245 -16.154 146.291  1.00  0.00     0.087 A 
ATOM     21  N   UNL     1     -28.112 -16.241 147.360  1.00  0.00    -0.361 N 
ATOM     22  C   UNL     1     -29.691 -14.612 148.506  1.00  0.00     0.027 A 
ATOM     23  C   UNL     1     -25.240 -10.737 144.323  1.00  0.00     0.106 C 
ATOM     24  H   UNL     1     -28.265 -17.072 147.915  1.00  0.00     0.166 HD
ENDBRANCH   5   7
ENDBRANCH   1   3
BRANCH   1  25
ATOM     25  C   UNL     1     -27.708 -11.778 139.769  1.00  0.00     0.180 C 
BRANCH  25  26
ATOM     26  O   UNL     1     -26.392 -12.224 139.468  1.00  0.00    -0.394 OA
ATOM     27  H   UNL     1     -26.244 -13.042 139.974  1.00  0.00     0.210 HD
ENDBRANCH  25  26
ENDBRANCH   1  25
TORSDOF 4
ENDMDL
MODEL 7
REMARK VINA RESULT:    -8.069      2.824      6.967
REMARK INTER + INTRA:         -10.231
REMARK INTER:                  -9.987
REMARK INTRA:                  -0.244
REMARK UNBOUND:                -0.511
REMARK SMILES C[C@@H](CO)NC(=O)[C@@H]1C=C2c3cccc4[nH]cc(c34)C[C@H]2N(C)C1
REMARK SMILES IDX 2 1 1 2 5 3 7 4 6 5 8 7 24 8 9 9 22 10 10 11 21 12 11 13
REMARK SMILES IDX 20 14 19 15 12 16 18 17 15 18 13 19 17 20 16 21 14 22 23 23
REMARK SMILES IDX 3 25 4 26
REMARK H PARENT 5 6 16 24 4 27
ROOT
ATOM      1  C   UNL     1     -29.543  -9.259 143.960  1.00  0.00     0.104 C 
ATOM      2  C   UNL     1     -30.168  -9.981 145.154  1.00  0.00     0.033 C 
ENDROOT
BRANCH   1   3
ATOM      3  N   UNL     1     -29.179 -10.232 142.932  1.00  0.00    -0.351 N 
ATOM      4  O   UNL     1     -27.785 -11.557 141.811  1.00  0.00    -0.274 OA
ATOM      5  C   UNL     1     -28.072 -11.040 142.890  1.00  0.00     0.228 C 
ATOM      6  H   UNL     1     -29.603 -10.129 142.017  1.00  0.00     0.163 HD
BRANCH   5   7
ATOM      7  C   UNL     1     -27.276 -11.280 144.179  1.00  0.00     0.115 C 
ATOM      8  C   UNL     1     -25.760 -11.170 143.888  1.00  0.00     0.102 C 
ATOM      9  C   UNL     1     -27.606 -12.643 144.742  1.00  0.00    -0.007 C 
ATOM     10  N   UNL     1     -24.890 -11.584 145.007  1.00  0.00    -0.298 NA
ATOM     11  C   UNL     1     -26.652 -13.430 145.273  1.00  0.00    -0.026 C 
ATOM     12  C   UNL     1     -25.167 -12.990 145.402  1.00  0.00     0.091 C 
ATOM     13  C   UNL     1     -26.929 -14.829 145.668  1.00  0.00    -0.011 A 
ATOM     14  C   UNL     1     -24.188 -13.970 144.655  1.00  0.00     0.061 C 
ATOM     15  C   UNL     1     -25.825 -15.682 145.495  1.00  0.00     0.010 A 
ATOM     16  C   UNL     1     -28.113 -15.391 146.148  1.00  0.00     0.009 A 
ATOM     17  C   UNL     1     -24.521 -15.380 145.029  1.00  0.00    -0.020 A 
ATOM     18  C   UNL     1     -25.895 -17.033 145.786  1.00  0.00     0.046 A 
ATOM     19  C   UNL     1     -28.176 -16.760 146.446  1.00  0.00     0.003 A 
ATOM     20  C   UNL     1     -23.809 -16.558 145.037  1.00  0.00     0.087 A 
ATOM     21  N   UNL     1     -24.651 -17.550 145.496  1.00  0.00    -0.361 N 
ATOM     22  C   UNL     1     -27.071 -17.612 146.271  1.00  0.00     0.027 A 
ATOM     23  C   UNL     1     -25.009 -10.679 146.150  1.00  0.00     0.106 C 
ATOM     24  H   UNL     1     -24.395 -18.521 145.603  1.00  0.00     0.166 HD
ENDBRANCH   5   7
ENDBRANCH   1   3
BRANCH   1  25
ATOM     25  C   UNL     1     -30.497  -8.190 143.396  1.00  0.00     0.180 C 
BRANCH  25  26
ATOM     26  O   UNL     1     -31.814  -8.712 143.271  1.00  0.00    -0.394 OA
ATOM     27  H   UNL     1     -32.053  -9.096 144.134  1.00  0.00     0.210 HD
ENDBRANCH  25  26
ENDBRANCH   1  25
TORSDOF 4
ENDMDL
MODEL 8
REMARK VINA RESULT:    -8.039      4.484      6.614
REMARK INTER + INTRA:         -10.195
REMARK INTER:                 -10.305
REMARK INTRA:                   0.110
REMARK UNBOUND:                -0.511
REMARK SMILES C[C@@H](CO)NC(=O)[C@@H]1C=C2c3cccc4[nH]cc(c34)C[C@H]2N(C)C1
REMARK SMILES IDX 2 1 1 2 5 3 7 4 6 5 8 7 24 8 9 9 22 10 10 11 21 12 11 13
REMARK SMILES IDX 20 14 19 15 12 16 18 17 15 18 13 19 17 20 16 21 14 22 23 23
REMARK SMILES IDX 3 25 4 26
REMARK H PARENT 5 6 16 24 4 27
ROOT
ATOM      1  C   UNL     1     -23.893 -17.722 147.061  1.00  0.00     0.104 C 
ATOM      2  C   UNL     1     -24.782 -18.921 146.736  1.00  0.00     0.033 C 
ENDROOT
BRANCH   1   3
ATOM      3  N   UNL     1     -24.157 -17.268 148.426  1.00  0.00    -0.351 N 
ATOM      4  O   UNL     1     -25.213 -16.089 149.992  1.00  0.00    -0.274 OA
ATOM      5  C   UNL     1     -25.293 -16.673 148.911  1.00  0.00     0.228 C 
ATOM      6  H   UNL     1     -23.359 -17.100 149.028  1.00  0.00     0.163 HD
BRANCH   5   7
ATOM      7  C   UNL     1     -26.596 -16.790 148.110  1.00  0.00     0.115 C 
ATOM      8  C   UNL     1     -26.634 -15.705 147.008  1.00  0.00     0.102 C 
ATOM      9  C   UNL     1     -27.784 -16.645 149.033  1.00  0.00    -0.007 C 
ATOM     10  N   UNL     1     -27.928 -15.589 146.307  1.00  0.00    -0.298 NA
ATOM     11  C   UNL     1     -28.874 -15.947 148.665  1.00  0.00    -0.026 C 
ATOM     12  C   UNL     1     -29.025 -15.291 147.264  1.00  0.00     0.091 C 
ATOM     13  C   UNL     1     -29.967 -15.652 149.618  1.00  0.00    -0.011 A 
ATOM     14  C   UNL     1     -29.261 -13.737 147.357  1.00  0.00     0.061 C 
ATOM     15  C   UNL     1     -30.591 -14.416 149.379  1.00  0.00     0.010 A 
ATOM     16  C   UNL     1     -30.419 -16.408 150.700  1.00  0.00     0.009 A 
ATOM     17  C   UNL     1     -30.333 -13.460 148.364  1.00  0.00    -0.020 A 
ATOM     18  C   UNL     1     -31.620 -13.952 150.179  1.00  0.00     0.046 A 
ATOM     19  C   UNL     1     -31.466 -15.934 151.505  1.00  0.00     0.003 A 
ATOM     20  C   UNL     1     -31.209 -12.418 148.562  1.00  0.00     0.087 A 
ATOM     21  N   UNL     1     -31.981 -12.726 149.663  1.00  0.00    -0.361 N 
ATOM     22  C   UNL     1     -32.089 -14.697 151.264  1.00  0.00     0.027 A 
ATOM     23  C   UNL     1     -28.225 -16.783 145.515  1.00  0.00     0.106 C 
ATOM     24  H   UNL     1     -32.709 -12.137 150.041  1.00  0.00     0.166 HD
ENDBRANCH   5   7
ENDBRANCH   1   3
BRANCH   1  25
ATOM     25  C   UNL     1     -22.404 -18.066 146.873  1.00  0.00     0.180 C 
BRANCH  25  26
ATOM     26  O   UNL     1     -22.249 -19.434 146.521  1.00  0.00    -0.394 OA
ATOM     27  H   UNL     1     -23.140 -19.790 146.354  1.00  0.00     0.210 HD
ENDBRANCH  25  26
ENDBRANCH   1  25
TORSDOF 4
ENDMDL
MODEL 9
REMARK VINA RESULT:    -8.018      2.644      7.195
REMARK INTER + INTRA:         -10.170
REMARK INTER:                  -9.667
REMARK INTRA:                  -0.502
REMARK UNBOUND:                -0.511
REMARK SMILES C[C@@H](CO)NC(=O)[C@@H]1C=C2c3cccc4[nH]cc(c34)C[C@H]2N(C)C1
REMARK SMILES IDX 2 1 1 2 5 3 7 4 6 5 8 7 24 8 9 9 22 10 10 11 21 12 11 13
REMARK SMILES IDX 20 14 19 15 12 16 18 17 15 18 13 19 17 20 16 21 14 22 23 23
REMARK SMILES IDX 3 25 4 26
REMARK H PARENT 5 6 16 24 4 27
ROOT
ATOM      1  C   UNL     1     -28.636 -10.582 143.845  1.00  0.00     0.104 C 
ATOM      2  C   UNL     1     -28.440 -10.133 142.397  1.00  0.00     0.033 C 
ENDROOT
BRANCH   1   3
ATOM      3  N   UNL     1     -27.357 -10.538 144.551  1.00  0.00    -0.351 N 
ATOM      4  O   UNL     1     -25.941 -11.036 146.196  1.00  0.00    -0.274 OA
ATOM      5  C   UNL     1     -26.889 -11.406 145.504  1.00  0.00     0.228 C 
ATOM      6  H   UNL     1     -26.866  -9.651 144.578  1.00  0.00     0.163 HD
BRANCH   5   7
ATOM      7  C   UNL     1     -27.542 -12.788 145.636  1.00  0.00     0.115 C 
ATOM      8  C   UNL     1     -28.190 -12.930 147.034  1.00  0.00     0.102 C 
ATOM      9  C   UNL     1     -26.507 -13.869 145.423  1.00  0.00    -0.007 C 
ATOM     10  N   UNL     1     -28.669 -14.291 147.351  1.00  0.00    -0.298 NA
ATOM     11  C   UNL     1     -26.495 -14.984 146.177  1.00  0.00    -0.026 C 
ATOM     12  C   UNL     1     -27.559 -15.276 147.272  1.00  0.00     0.091 C 
ATOM     13  C   UNL     1     -25.391 -15.966 146.097  1.00  0.00    -0.011 A 
ATOM     14  C   UNL     1     -26.911 -15.483 148.692  1.00  0.00     0.061 C 
ATOM     15  C   UNL     1     -25.122 -16.597 147.323  1.00  0.00     0.010 A 
ATOM     16  C   UNL     1     -24.597 -16.309 145.001  1.00  0.00     0.009 A 
ATOM     17  C   UNL     1     -25.765 -16.438 148.576  1.00  0.00    -0.020 A 
ATOM     18  C   UNL     1     -24.108 -17.530 147.454  1.00  0.00     0.046 A 
ATOM     19  C   UNL     1     -23.573 -17.258 145.142  1.00  0.00     0.003 A 
ATOM     20  C   UNL     1     -25.129 -17.275 149.463  1.00  0.00     0.087 A 
ATOM     21  N   UNL     1     -24.128 -17.930 148.774  1.00  0.00    -0.361 N 
ATOM     22  C   UNL     1     -23.305 -17.889 146.369  1.00  0.00     0.027 A 
ATOM     23  C   UNL     1     -29.789 -14.684 146.497  1.00  0.00     0.106 C 
ATOM     24  H   UNL     1     -23.496 -18.606 149.177  1.00  0.00     0.166 HD
ENDBRANCH   5   7
ENDBRANCH   1   3
BRANCH   1  25
ATOM     25  C   UNL     1     -29.690  -9.716 144.557  1.00  0.00     0.180 C 
BRANCH  25  26
ATOM     26  O   UNL     1     -30.463 -10.504 145.453  1.00  0.00    -0.394 OA
ATOM     27  H   UNL     1     -30.602  -9.972 146.256  1.00  0.00     0.210 HD
ENDBRANCH  25  26
ENDBRANCH   1  25
TORSDOF 4
ENDMDL
MODEL 10
REMARK VINA RESULT:    -8.005      4.351      6.370
REMARK INTER + INTRA:         -10.154
REMARK INTER:                 -10.045
REMARK INTRA:                  -0.109
REMARK UNBOUND:                -0.511
REMARK SMILES C[C@@H](CO)NC(=O)[C@@H]1C=C2c3cccc4[nH]cc(c34)C[C@H]2N(C)C1
REMARK SMILES IDX 2 1 1 2 5 3 7 4 6 5 8 7 24 8 9 9 22 10 10 11 21 12 11 13
REMARK SMILES IDX 20 14 19 15 12 16 18 17 15 18 13 19 17 20 16 21 14 22 23 23
REMARK SMILES IDX 3 25 4 26
REMARK H PARENT 5 6 16 24 4 27
ROOT
ATOM      1  C   UNL     1     -27.561 -18.640 151.707  1.00  0.00     0.104 C 
ATOM      2  C   UNL     1     -28.822 -17.991 152.276  1.00  0.00     0.033 C 
ENDROOT
BRANCH   1   3
ATOM      3  N   UNL     1     -26.510 -17.634 151.566  1.00  0.00    -0.351 N 
ATOM      4  O   UNL     1     -24.998 -16.436 150.454  1.00  0.00    -0.274 OA
ATOM      5  C   UNL     1     -26.084 -17.014 150.420  1.00  0.00     0.228 C 
ATOM      6  H   UNL     1     -25.820 -17.569 152.306  1.00  0.00     0.163 HD
BRANCH   5   7
ATOM      7  C   UNL     1     -26.986 -17.043 149.178  1.00  0.00     0.115 C 
ATOM      8  C   UNL     1     -26.254 -16.386 147.984  1.00  0.00     0.102 C 
ATOM      9  C   UNL     1     -28.281 -16.319 149.465  1.00  0.00    -0.007 C 
ATOM     10  N   UNL     1     -27.098 -16.172 146.791  1.00  0.00    -0.298 NA
ATOM     11  C   UNL     1     -28.853 -15.520 148.546  1.00  0.00    -0.026 C 
ATOM     12  C   UNL     1     -28.272 -15.321 147.118  1.00  0.00     0.091 C 
ATOM     13  C   UNL     1     -30.023 -14.673 148.871  1.00  0.00    -0.011 A 
ATOM     14  C   UNL     1     -27.953 -13.810 146.810  1.00  0.00     0.061 C 
ATOM     15  C   UNL     1     -30.041 -13.460 148.164  1.00  0.00     0.010 A 
ATOM     16  C   UNL     1     -31.056 -14.912 149.779  1.00  0.00     0.009 A 
ATOM     17  C   UNL     1     -29.130 -12.969 147.196  1.00  0.00    -0.020 A 
ATOM     18  C   UNL     1     -31.043 -12.524 148.350  1.00  0.00     0.046 A 
ATOM     19  C   UNL     1     -32.071 -13.960 149.959  1.00  0.00     0.003 A 
ATOM     20  C   UNL     1     -29.585 -11.731 146.805  1.00  0.00     0.087 A 
ATOM     21  N   UNL     1     -30.742 -11.472 147.510  1.00  0.00    -0.361 N 
ATOM     22  C   UNL     1     -32.088 -12.745 149.251  1.00  0.00     0.027 A 
ATOM     23  C   UNL     1     -27.513 -17.438 146.186  1.00  0.00     0.106 C 
ATOM     24  H   UNL     1     -31.294 -10.629 147.427  1.00  0.00     0.166 HD
ENDBRANCH   5   7
ENDBRANCH   1   3
BRANCH   1  25
ATOM     25  C   UNL     1     -27.090 -19.810 152.590  1.00  0.00     0.180 C 
BRANCH  25  26
ATOM     26  O   UNL     1     -28.010 -20.891 152.518  1.00  0.00    -0.394 OA
ATOM     27  H   UNL     1     -28.642 -20.684 151.807  1.00  0.00     0.210 HD
ENDBRANCH  25  26
ENDBRANCH   1  25
TORSDOF 4
ENDMDL
MODEL 11
REMARK VINA RESULT:    -7.921      2.441      7.128
REMARK INTER + INTRA:         -10.054
REMARK INTER:                 -10.286
REMARK INTRA:                   0.232
REMARK UNBOUND:                -0.511
REMARK SMILES C[C@@H](CO)NC(=O)[C@@H]1C=C2c3cccc4[nH]cc(c34)C[C@H]2N(C)C1
REMARK SMILES IDX 2 1 1 2 5 3 7 4 6 5 8 7 24 8 9 9 22 10 10 11 21 12 11 13
REMARK SMILES IDX 20 14 19 15 12 16 18 17 15 18 13 19 17 20 16 21 14 22 23 23
REMARK SMILES IDX 3 25 4 26
REMARK H PARENT 5 6 16 24 4 27
ROOT
ATOM      1  C   UNL     1     -28.468 -10.175 143.462  1.00  0.00     0.104 C 
ATOM      2  C   UNL     1     -28.283  -8.738 143.947  1.00  0.00     0.033 C 
ENDROOT
BRANCH   1   3
ATOM      3  N   UNL     1     -29.116 -10.967 144.507  1.00  0.00    -0.351 N 
ATOM      4  O   UNL     1     -29.295 -12.670 145.931  1.00  0.00    -0.274 OA
ATOM      5  C   UNL     1     -28.544 -11.895 145.339  1.00  0.00     0.228 C 
ATOM      6  H   UNL     1     -30.122 -11.081 144.453  1.00  0.00     0.163 HD
BRANCH   5   7
ATOM      7  C   UNL     1     -27.020 -11.898 145.515  1.00  0.00     0.115 C 
ATOM      8  C   UNL     1     -26.334 -12.038 144.135  1.00  0.00     0.102 C 
ATOM      9  C   UNL     1     -26.608 -13.031 146.425  1.00  0.00    -0.007 C 
ATOM     10  N   UNL     1     -24.875 -12.258 144.197  1.00  0.00    -0.298 NA
ATOM     11  C   UNL     1     -25.509 -13.766 146.174  1.00  0.00    -0.026 C 
ATOM     12  C   UNL     1     -24.556 -13.481 144.980  1.00  0.00     0.091 C 
ATOM     13  C   UNL     1     -25.191 -14.982 146.955  1.00  0.00    -0.011 A 
ATOM     14  C   UNL     1     -24.414 -14.722 144.021  1.00  0.00     0.061 C 
ATOM     15  C   UNL     1     -24.542 -15.972 146.198  1.00  0.00     0.010 A 
ATOM     16  C   UNL     1     -25.469 -15.267 148.293  1.00  0.00     0.009 A 
ATOM     17  C   UNL     1     -24.145 -15.947 144.837  1.00  0.00    -0.020 A 
ATOM     18  C   UNL     1     -24.184 -17.191 146.746  1.00  0.00     0.046 A 
ATOM     19  C   UNL     1     -25.100 -16.503 148.843  1.00  0.00     0.003 A 
ATOM     20  C   UNL     1     -23.553 -17.160 144.569  1.00  0.00     0.087 A 
ATOM     21  N   UNL     1     -23.583 -17.903 145.730  1.00  0.00    -0.361 N 
ATOM     22  C   UNL     1     -24.451 -17.493 148.084  1.00  0.00     0.027 A 
ATOM     23  C   UNL     1     -24.171 -11.091 144.727  1.00  0.00     0.106 C 
ATOM     24  H   UNL     1     -23.218 -18.841 145.826  1.00  0.00     0.166 HD
ENDBRANCH   5   7
ENDBRANCH   1   3
BRANCH   1  25
ATOM     25  C   UNL     1     -29.277 -10.221 142.153  1.00  0.00     0.180 C 
BRANCH  25  26
ATOM     26  O   UNL     1     -30.666 -10.081 142.419  1.00  0.00    -0.394 OA
ATOM     27  H   UNL     1     -30.979  -9.310 141.913  1.00  0.00     0.210 HD
ENDBRANCH  25  26
ENDBRANCH   1  25
TORSDOF 4
ENDMDL
MODEL 12
REMARK VINA RESULT:    -7.916      1.563      2.648
REMARK INTER + INTRA:         -10.047
REMARK INTER:                 -10.695
REMARK INTRA:                   0.647
REMARK UNBOUND:                -0.511
REMARK SMILES C[C@@H](CO)NC(=O)[C@@H]1C=C2c3cccc4[nH]cc(c34)C[C@H]2N(C)C1
REMARK SMILES IDX 2 1 1 2 5 3 7 4 6 5 8 7 24 8 9 9 22 10 10 11 21 12 11 13
REMARK SMILES IDX 20 14 19 15 12 16 18 17 15 18 13 19 17 20 16 21 14 22 23 23
REMARK SMILES IDX 3 25 4 26
REMARK H PARENT 5 6 16 24 4 27
ROOT
ATOM      1  C   UNL     1     -28.730 -14.680 147.388  1.00  0.00     0.104 C 
ATOM      2  C   UNL     1     -29.387 -14.794 148.763  1.00  0.00     0.033 C 
ENDROOT
BRANCH   1   3
ATOM      3  N   UNL     1     -28.130 -15.962 147.021  1.00  0.00    -0.351 N 
ATOM      4  O   UNL     1     -26.917 -17.334 145.756  1.00  0.00    -0.274 OA
ATOM      5  C   UNL     1     -27.076 -16.188 146.175  1.00  0.00     0.228 C 
ATOM      6  H   UNL     1     -28.689 -16.797 147.156  1.00  0.00     0.163 HD
BRANCH   5   7
ATOM      7  C   UNL     1     -26.140 -15.024 145.824  1.00  0.00     0.115 C 
ATOM      8  C   UNL     1     -26.356 -13.859 146.819  1.00  0.00     0.102 C 
ATOM      9  C   UNL     1     -26.400 -14.562 144.408  1.00  0.00    -0.007 C 
ATOM     10  N   UNL     1     -25.658 -12.609 146.458  1.00  0.00    -0.298 NA
ATOM     11  C   UNL     1     -26.401 -13.255 144.089  1.00  0.00    -0.026 C 
ATOM     12  C   UNL     1     -26.084 -12.133 145.116  1.00  0.00     0.091 C 
ATOM     13  C   UNL     1     -26.822 -12.782 142.751  1.00  0.00    -0.011 A 
ATOM     14  C   UNL     1     -27.263 -11.099 145.251  1.00  0.00     0.061 C 
ATOM     15  C   UNL     1     -27.452 -11.527 142.782  1.00  0.00     0.010 A 
ATOM     16  C   UNL     1     -26.698 -13.416 141.514  1.00  0.00     0.009 A 
ATOM     17  C   UNL     1     -27.707 -10.675 143.886  1.00  0.00    -0.020 A 
ATOM     18  C   UNL     1     -27.939 -10.927 141.633  1.00  0.00     0.046 A 
ATOM     19  C   UNL     1     -27.190 -12.801 140.353  1.00  0.00     0.003 A 
ATOM     20  C   UNL     1     -28.354  -9.564 143.397  1.00  0.00     0.087 A 
ATOM     21  N   UNL     1     -28.489  -9.728 142.034  1.00  0.00    -0.361 N 
ATOM     22  C   UNL     1     -27.822 -11.545 140.386  1.00  0.00     0.027 A 
ATOM     23  C   UNL     1     -24.205 -12.757 146.533  1.00  0.00     0.106 C 
ATOM     24  H   UNL     1     -28.931  -9.065 141.412  1.00  0.00     0.166 HD
ENDBRANCH   5   7
ENDBRANCH   1   3
BRANCH   1  25
ATOM     25  C   UNL     1     -29.744 -14.220 146.324  1.00  0.00     0.180 C 
BRANCH  25  26
ATOM     26  O   UNL     1     -30.078 -12.851 146.512  1.00  0.00    -0.394 OA
ATOM     27  H   UNL     1     -30.949 -12.826 146.948  1.00  0.00     0.210 HD
ENDBRANCH  25  26
ENDBRANCH   1  25
TORSDOF 4
ENDMDL
MODEL 13
REMARK VINA RESULT:    -7.886      2.885      7.680
REMARK INTER + INTRA:         -10.010
REMARK INTER:                 -10.183
REMARK INTRA:                   0.172
REMARK UNBOUND:                -0.511
REMARK SMILES C[C@@H](CO)NC(=O)[C@@H]1C=C2c3cccc4[nH]cc(c34)C[C@H]2N(C)C1
REMARK SMILES IDX 2 1 1 2 5 3 7 4 6 5 8 7 24 8 9 9 22 10 10 11 21 12 11 13
REMARK SMILES IDX 20 14 19 15 12 16 18 17 15 18 13 19 17 20 16 21 14 22 23 23
REMARK SMILES IDX 3 25 4 26
REMARK H PARENT 5 6 16 24 4 27
ROOT
ATOM      1  C   UNL     1     -25.020 -12.642 144.105  1.00  0.00     0.104 C 
ATOM      2  C   UNL     1     -26.014 -13.540 143.368  1.00  0.00     0.033 C 
ENDROOT
BRANCH   1   3
ATOM      3  N   UNL     1     -25.638 -12.118 145.322  1.00  0.00    -0.351 N 
ATOM      4  O   UNL     1     -27.160 -12.053 146.946  1.00  0.00    -0.274 OA
ATOM      5  C   UNL     1     -26.520 -12.751 146.159  1.00  0.00     0.228 C 
ATOM      6  H   UNL     1     -25.668 -11.111 145.437  1.00  0.00     0.163 HD
BRANCH   5   7
ATOM      7  C   UNL     1     -26.640 -14.279 146.098  1.00  0.00     0.115 C 
ATOM      8  C   UNL     1     -28.075 -14.708 146.484  1.00  0.00     0.102 C 
ATOM      9  C   UNL     1     -25.632 -14.913 147.029  1.00  0.00    -0.007 C 
ATOM     10  N   UNL     1     -28.253 -16.164 146.659  1.00  0.00    -0.298 NA
ATOM     11  C   UNL     1     -25.949 -15.987 147.776  1.00  0.00    -0.026 C 
ATOM     12  C   UNL     1     -27.334 -16.688 147.703  1.00  0.00     0.091 C 
ATOM     13  C   UNL     1     -25.034 -16.510 148.814  1.00  0.00    -0.011 A 
ATOM     14  C   UNL     1     -28.059 -16.721 149.100  1.00  0.00     0.061 C 
ATOM     15  C   UNL     1     -25.706 -17.064 149.916  1.00  0.00     0.010 A 
ATOM     16  C   UNL     1     -23.638 -16.497 148.844  1.00  0.00     0.009 A 
ATOM     17  C   UNL     1     -27.098 -17.203 150.143  1.00  0.00    -0.020 A 
ATOM     18  C   UNL     1     -25.022 -17.583 151.001  1.00  0.00     0.046 A 
ATOM     19  C   UNL     1     -22.951 -17.029 149.946  1.00  0.00     0.003 A 
ATOM     20  C   UNL     1     -27.248 -17.803 151.372  1.00  0.00     0.087 A 
ATOM     21  N   UNL     1     -25.985 -18.028 151.881  1.00  0.00    -0.361 N 
ATOM     22  C   UNL     1     -23.626 -17.583 151.048  1.00  0.00     0.027 A 
ATOM     23  C   UNL     1     -28.089 -16.886 145.397  1.00  0.00     0.106 C 
ATOM     24  H   UNL     1     -25.791 -18.456 152.776  1.00  0.00     0.166 HD
ENDBRANCH   5   7
ENDBRANCH   1   3
BRANCH   1  25
ATOM     25  C   UNL     1     -23.720 -13.400 144.429  1.00  0.00     0.180 C 
BRANCH  25  26
ATOM     26  O   UNL     1     -23.792 -14.739 143.957  1.00  0.00    -0.394 OA
ATOM     27  H   UNL     1     -24.716 -14.903 143.699  1.00  0.00     0.210 HD
ENDBRANCH  25  26
ENDBRANCH   1  25
TORSDOF 4
ENDMDL
MODEL 14
REMARK VINA RESULT:    -7.778      4.015      8.214
REMARK INTER + INTRA:          -9.880
REMARK INTER:                  -9.437
REMARK INTRA:                  -0.443
REMARK UNBOUND:                -0.511
REMARK SMILES C[C@@H](CO)NC(=O)[C@@H]1C=C2c3cccc4[nH]cc(c34)C[C@H]2N(C)C1
REMARK SMILES IDX 2 1 1 2 5 3 7 4 6 5 8 7 24 8 9 9 22 10 10 11 21 12 11 13
REMARK SMILES IDX 20 14 19 15 12 16 18 17 15 18 13 19 17 20 16 21 14 22 23 23
REMARK SMILES IDX 3 25 4 26
REMARK H PARENT 5 6 16 24 4 27
ROOT
ATOM      1  C   UNL     1     -24.888 -15.464 145.378  1.00  0.00     0.104 C 
ATOM      2  C   UNL     1     -26.185 -14.769 144.965  1.00  0.00     0.033 C 
ENDROOT
BRANCH   1   3
ATOM      3  N   UNL     1     -25.112 -16.905 145.483  1.00  0.00    -0.351 N 
ATOM      4  O   UNL     1     -24.891 -18.921 146.402  1.00  0.00    -0.274 OA
ATOM      5  C   UNL     1     -24.954 -17.705 146.585  1.00  0.00     0.228 C 
ATOM      6  H   UNL     1     -25.110 -17.444 144.624  1.00  0.00     0.163 HD
BRANCH   5   7
ATOM      7  C   UNL     1     -24.896 -17.056 147.974  1.00  0.00     0.115 C 
ATOM      8  C   UNL     1     -24.274 -18.045 148.988  1.00  0.00     0.102 C 
ATOM      9  C   UNL     1     -26.285 -16.656 148.414  1.00  0.00    -0.007 C 
ATOM     10  N   UNL     1     -24.355 -17.609 150.397  1.00  0.00    -0.298 NA
ATOM     11  C   UNL     1     -26.692 -16.825 149.685  1.00  0.00    -0.026 C 
ATOM     12  C   UNL     1     -25.767 -17.384 150.802  1.00  0.00     0.091 C 
ATOM     13  C   UNL     1     -28.098 -16.599 150.089  1.00  0.00    -0.011 A 
ATOM     14  C   UNL     1     -26.356 -18.682 151.470  1.00  0.00     0.061 C 
ATOM     15  C   UNL     1     -28.520 -17.452 151.123  1.00  0.00     0.010 A 
ATOM     16  C   UNL     1     -29.028 -15.697 149.571  1.00  0.00     0.009 A 
ATOM     17  C   UNL     1     -27.792 -18.448 151.821  1.00  0.00    -0.020 A 
ATOM     18  C   UNL     1     -29.810 -17.409 151.621  1.00  0.00     0.046 A 
ATOM     19  C   UNL     1     -30.333 -15.656 150.084  1.00  0.00     0.003 A 
ATOM     20  C   UNL     1     -28.653 -19.007 152.737  1.00  0.00     0.087 A 
ATOM     21  N   UNL     1     -29.870 -18.372 152.606  1.00  0.00    -0.361 N 
ATOM     22  C   UNL     1     -30.755 -16.511 151.118  1.00  0.00     0.027 A 
ATOM     23  C   UNL     1     -23.536 -16.422 150.645  1.00  0.00     0.106 C 
ATOM     24  H   UNL     1     -30.694 -18.582 153.153  1.00  0.00     0.166 HD
ENDBRANCH   5   7
ENDBRANCH   1   3
BRANCH   1  25
ATOM     25  C   UNL     1     -23.751 -15.153 144.388  1.00  0.00     0.180 C 
BRANCH  25  26
ATOM     26  O   UNL     1     -23.050 -16.341 144.043  1.00  0.00    -0.394 OA
ATOM     27  H   UNL     1     -23.293 -17.018 144.700  1.00  0.00     0.210 HD
ENDBRANCH  25  26
ENDBRANCH   1  25
TORSDOF 4
ENDMDL
MODEL 15
REMARK VINA RESULT:    -7.766      2.929      4.389
REMARK INTER + INTRA:          -9.866
REMARK INTER:                  -9.947
REMARK INTRA:                   0.081
REMARK UNBOUND:                -0.511
REMARK SMILES C[C@@H](CO)NC(=O)[C@@H]1C=C2c3cccc4[nH]cc(c34)C[C@H]2N(C)C1
REMARK SMILES IDX 2 1 1 2 5 3 7 4 6 5 8 7 24 8 9 9 22 10 10 11 21 12 11 13
REMARK SMILES IDX 20 14 19 15 12 16 18 17 15 18 13 19 17 20 16 21 14 22 23 23
REMARK SMILES IDX 3 25 4 26
REMARK H PARENT 5 6 16 24 4 27
ROOT
ATOM      1  C   UNL     1     -24.449 -17.938 147.047  1.00  0.00     0.104 C 
ATOM      2  C   UNL     1     -25.022 -19.101 146.238  1.00  0.00     0.033 C 
ENDROOT
BRANCH   1   3
ATOM      3  N   UNL     1     -24.588 -18.216 148.476  1.00  0.00    -0.351 N 
ATOM      4  O   UNL     1     -24.949 -17.690 150.609  1.00  0.00    -0.274 OA
ATOM      5  C   UNL     1     -25.200 -17.445 149.429  1.00  0.00     0.228 C 
ATOM      6  H   UNL     1     -23.946 -18.883 148.889  1.00  0.00     0.163 HD
BRANCH   5   7
ATOM      7  C   UNL     1     -26.182 -16.351 148.985  1.00  0.00     0.115 C 
ATOM      8  C   UNL     1     -27.256 -16.959 148.053  1.00  0.00     0.102 C 
ATOM      9  C   UNL     1     -25.434 -15.245 148.278  1.00  0.00    -0.007 C 
ATOM     10  N   UNL     1     -28.132 -15.965 147.400  1.00  0.00    -0.298 NA
ATOM     11  C   UNL     1     -25.940 -14.650 147.182  1.00  0.00    -0.026 C 
ATOM     12  C   UNL     1     -27.335 -15.003 146.595  1.00  0.00     0.091 C 
ATOM     13  C   UNL     1     -25.147 -13.690 146.382  1.00  0.00    -0.011 A 
ATOM     14  C   UNL     1     -27.247 -15.485 145.099  1.00  0.00     0.061 C 
ATOM     15  C   UNL     1     -25.449 -13.731 145.010  1.00  0.00     0.010 A 
ATOM     16  C   UNL     1     -24.155 -12.802 146.802  1.00  0.00     0.009 A 
ATOM     17  C   UNL     1     -26.397 -14.528 144.322  1.00  0.00    -0.020 A 
ATOM     18  C   UNL     1     -24.794 -12.925 144.096  1.00  0.00     0.046 A 
ATOM     19  C   UNL     1     -23.499 -11.984 145.870  1.00  0.00     0.003 A 
ATOM     20  C   UNL     1     -26.306 -14.201 142.989  1.00  0.00     0.087 A 
ATOM     21  N   UNL     1     -25.333 -13.231 142.864  1.00  0.00    -0.361 N 
ATOM     22  C   UNL     1     -23.801 -12.027 144.497  1.00  0.00     0.027 A 
ATOM     23  C   UNL     1     -28.981 -15.271 148.368  1.00  0.00     0.106 C 
ATOM     24  H   UNL     1     -25.050 -12.804 141.993  1.00  0.00     0.166 HD
ENDBRANCH   5   7
ENDBRANCH   1   3
BRANCH   1  25
ATOM     25  C   UNL     1     -22.978 -17.675 146.676  1.00  0.00     0.180 C 
BRANCH  25  26
ATOM     26  O   UNL     1     -22.265 -18.900 146.564  1.00  0.00    -0.394 OA
ATOM     27  H   UNL     1     -22.896 -19.617 146.749  1.00  0.00     0.210 HD
ENDBRANCH  25  26
ENDBRANCH   1  25
TORSDOF 4
ENDMDL
MODEL 16
REMARK VINA RESULT:    -7.757      3.006      6.204
REMARK INTER + INTRA:          -9.856
REMARK INTER:                 -10.724
REMARK INTRA:                   0.869
REMARK UNBOUND:                -0.511
REMARK SMILES C[C@@H](CO)NC(=O)[C@@H]1C=C2c3cccc4[nH]cc(c34)C[C@H]2N(C)C1
REMARK SMILES IDX 2 1 1 2 5 3 7 4 6 5 8 7 24 8 9 9 22 10 10 11 21 12 11 13
REMARK SMILES IDX 20 14 19 15 12 16 18 17 15 18 13 19 17 20 16 21 14 22 23 23
REMARK SMILES IDX 3 25 4 26
REMARK H PARENT 5 6 16 24 4 27
ROOT
ATOM      1  C   UNL     1     -29.339 -13.681 147.255  1.00  0.00     0.104 C 
ATOM      2  C   UNL     1     -29.334 -15.175 146.935  1.00  0.00     0.033 C 
ENDROOT
BRANCH   1   3
ATOM      3  N   UNL     1     -29.773 -12.927 146.080  1.00  0.00    -0.351 N 
ATOM      4  O   UNL     1     -29.729 -11.228 144.642  1.00  0.00    -0.274 OA
ATOM      5  C   UNL     1     -29.087 -11.952 145.402  1.00  0.00     0.228 C 
ATOM      6  H   UNL     1     -30.769 -12.887 145.889  1.00  0.00     0.163 HD
BRANCH   5   7
ATOM      7  C   UNL     1     -27.570 -11.837 145.598  1.00  0.00     0.115 C 
ATOM      8  C   UNL     1     -26.862 -11.831 144.222  1.00  0.00     0.102 C 
ATOM      9  C   UNL     1     -27.070 -12.986 146.443  1.00  0.00    -0.007 C 
ATOM     10  N   UNL     1     -25.391 -11.930 144.290  1.00  0.00    -0.298 NA
ATOM     11  C   UNL     1     -25.910 -13.608 146.161  1.00  0.00    -0.026 C 
ATOM     12  C   UNL     1     -24.975 -13.168 145.000  1.00  0.00     0.091 C 
ATOM     13  C   UNL     1     -25.495 -14.839 146.870  1.00  0.00    -0.011 A 
ATOM     14  C   UNL     1     -24.719 -14.329 143.969  1.00  0.00     0.061 C 
ATOM     15  C   UNL     1     -24.757 -15.720 146.062  1.00  0.00     0.010 A 
ATOM     16  C   UNL     1     -25.759 -15.229 148.184  1.00  0.00     0.009 A 
ATOM     17  C   UNL     1     -24.353 -15.576 144.711  1.00  0.00    -0.020 A 
ATOM     18  C   UNL     1     -24.301 -16.936 146.539  1.00  0.00     0.046 A 
ATOM     19  C   UNL     1     -25.290 -16.462 148.661  1.00  0.00     0.003 A 
ATOM     20  C   UNL     1     -23.656 -16.714 144.377  1.00  0.00     0.087 A 
ATOM     21  N   UNL     1     -23.632 -17.530 145.489  1.00  0.00    -0.361 N 
ATOM     22  C   UNL     1     -24.552 -17.343 147.851  1.00  0.00     0.027 A 
ATOM     23  C   UNL     1     -24.794 -10.742 144.901  1.00  0.00     0.106 C 
ATOM     24  H   UNL     1     -23.189 -18.437 145.532  1.00  0.00     0.166 HD
ENDBRANCH   5   7
ENDBRANCH   1   3
BRANCH   1  25
ATOM     25  C   UNL     1     -30.236 -13.376 148.468  1.00  0.00     0.180 C 
BRANCH  25  26
ATOM     26  O   UNL     1     -31.547 -13.023 148.045  1.00  0.00    -0.394 OA
ATOM     27  H   UNL     1     -31.863 -12.323 148.643  1.00  0.00     0.210 HD
ENDBRANCH  25  26
ENDBRANCH   1  25
TORSDOF 4
ENDMDL
MODEL 17
REMARK VINA RESULT:    -7.745      2.702      3.918
REMARK INTER + INTRA:          -9.842
REMARK INTER:                  -9.423
REMARK INTRA:                  -0.419
REMARK UNBOUND:                -0.511
REMARK SMILES C[C@@H](CO)NC(=O)[C@@H]1C=C2c3cccc4[nH]cc(c34)C[C@H]2N(C)C1
REMARK SMILES IDX 2 1 1 2 5 3 7 4 6 5 8 7 24 8 9 9 22 10 10 11 21 12 11 13
REMARK SMILES IDX 20 14 19 15 12 16 18 17 15 18 13 19 17 20 16 21 14 22 23 23
REMARK SMILES IDX 3 25 4 26
REMARK H PARENT 5 6 16 24 4 27
ROOT
ATOM      1  C   UNL     1     -27.594 -17.016 149.999  1.00  0.00     0.104 C 
ATOM      2  C   UNL     1     -26.297 -17.539 150.614  1.00  0.00     0.033 C 
ENDROOT
BRANCH   1   3
ATOM      3  N   UNL     1     -27.614 -17.312 148.567  1.00  0.00    -0.351 N 
ATOM      4  O   UNL     1     -28.311 -17.073 146.466  1.00  0.00    -0.274 OA
ATOM      5  C   UNL     1     -28.102 -16.531 147.551  1.00  0.00     0.228 C 
ATOM      6  H   UNL     1     -27.530 -18.283 148.287  1.00  0.00     0.163 HD
BRANCH   5   7
ATOM      7  C   UNL     1     -28.331 -15.035 147.805  1.00  0.00     0.115 C 
ATOM      8  C   UNL     1     -29.628 -14.576 147.098  1.00  0.00     0.102 C 
ATOM      9  C   UNL     1     -27.147 -14.241 147.304  1.00  0.00    -0.007 C 
ATOM     10  N   UNL     1     -29.841 -13.115 147.101  1.00  0.00    -0.298 NA
ATOM     11  C   UNL     1     -27.313 -13.066 146.668  1.00  0.00    -0.026 C 
ATOM     12  C   UNL     1     -28.705 -12.411 146.450  1.00  0.00     0.091 C 
ATOM     13  C   UNL     1     -26.181 -12.365 146.022  1.00  0.00    -0.011 A 
ATOM     14  C   UNL     1     -29.016 -12.165 144.927  1.00  0.00     0.061 C 
ATOM     15  C   UNL     1     -26.557 -11.652 144.871  1.00  0.00     0.010 A 
ATOM     16  C   UNL     1     -24.833 -12.347 146.386  1.00  0.00     0.009 A 
ATOM     17  C   UNL     1     -27.837 -11.503 144.284  1.00  0.00    -0.020 A 
ATOM     18  C   UNL     1     -25.633 -10.951 144.115  1.00  0.00     0.046 A 
ATOM     19  C   UNL     1     -23.904 -11.631 145.617  1.00  0.00     0.003 A 
ATOM     20  C   UNL     1     -27.679 -10.715 143.168  1.00  0.00     0.087 A 
ATOM     21  N   UNL     1     -26.342 -10.388 143.076  1.00  0.00    -0.361 N 
ATOM     22  C   UNL     1     -24.281 -10.918 144.465  1.00  0.00     0.027 A 
ATOM     23  C   UNL     1     -30.079 -12.603 148.451  1.00  0.00     0.106 C 
ATOM     24  H   UNL     1     -25.936  -9.817 142.348  1.00  0.00     0.166 HD
ENDBRANCH   5   7
ENDBRANCH   1   3
BRANCH   1  25
ATOM     25  C   UNL     1     -28.825 -17.616 150.703  1.00  0.00     0.180 C 
BRANCH  25  26
ATOM     26  O   UNL     1     -28.614 -18.992 150.991  1.00  0.00    -0.394 OA
ATOM     27  H   UNL     1     -28.379 -19.055 151.934  1.00  0.00     0.210 HD
ENDBRANCH  25  26
ENDBRANCH   1  25
TORSDOF 4
ENDMDL
MODEL 18
REMARK VINA RESULT:    -7.714      2.943      3.628
REMARK INTER + INTRA:          -9.803
REMARK INTER:                  -9.971
REMARK INTRA:                   0.168
REMARK UNBOUND:                -0.511
REMARK SMILES C[C@@H](CO)NC(=O)[C@@H]1C=C2c3cccc4[nH]cc(c34)C[C@H]2N(C)C1
REMARK SMILES IDX 2 1 1 2 5 3 7 4 6 5 8 7 24 8 9 9 22 10 10 11 21 12 11 13
REMARK SMILES IDX 20 14 19 15 12 16 18 17 15 18 13 19 17 20 16 21 14 22 23 23
REMARK SMILES IDX 3 25 4 26
REMARK H PARENT 5 6 16 24 4 27
ROOT
ATOM      1  C   UNL     1     -24.089 -18.830 146.273  1.00  0.00     0.104 C 
ATOM      2  C   UNL     1     -23.239 -18.536 147.509  1.00  0.00     0.033 C 
ENDROOT
BRANCH   1   3
ATOM      3  N   UNL     1     -23.717 -17.920 145.192  1.00  0.00    -0.351 N 
ATOM      4  O   UNL     1     -23.948 -16.124 143.895  1.00  0.00    -0.274 OA
ATOM      5  C   UNL     1     -24.113 -16.620 145.010  1.00  0.00     0.228 C 
ATOM      6  H   UNL     1     -23.368 -18.330 144.332  1.00  0.00     0.163 HD
BRANCH   5   7
ATOM      7  C   UNL     1     -24.705 -15.848 146.197  1.00  0.00     0.115 C 
ATOM      8  C   UNL     1     -26.095 -16.424 146.556  1.00  0.00     0.102 C 
ATOM      9  C   UNL     1     -24.815 -14.381 145.855  1.00  0.00    -0.007 C 
ATOM     10  N   UNL     1     -26.848 -15.631 147.548  1.00  0.00    -0.298 NA
ATOM     11  C   UNL     1     -25.886 -13.655 146.225  1.00  0.00    -0.026 C 
ATOM     12  C   UNL     1     -27.052 -14.239 147.070  1.00  0.00     0.091 C 
ATOM     13  C   UNL     1     -26.087 -12.268 145.751  1.00  0.00    -0.011 A 
ATOM     14  C   UNL     1     -28.440 -14.110 146.339  1.00  0.00     0.061 C 
ATOM     15  C   UNL     1     -27.441 -11.932 145.583  1.00  0.00     0.010 A 
ATOM     16  C   UNL     1     -25.134 -11.298 145.437  1.00  0.00     0.009 A 
ATOM     17  C   UNL     1     -28.598 -12.714 145.823  1.00  0.00    -0.020 A 
ATOM     18  C   UNL     1     -27.831 -10.686 145.123  1.00  0.00     0.046 A 
ATOM     19  C   UNL     1     -25.537 -10.036 144.975  1.00  0.00     0.003 A 
ATOM     20  C   UNL     1     -29.685 -11.936 145.500  1.00  0.00     0.087 A 
ATOM     21  N   UNL     1     -29.209 -10.712 145.077  1.00  0.00    -0.361 N 
ATOM     22  C   UNL     1     -26.892  -9.701 144.806  1.00  0.00     0.027 A 
ATOM     23  C   UNL     1     -26.204 -15.652 148.862  1.00  0.00     0.106 C 
ATOM     24  H   UNL     1     -29.786  -9.940 144.773  1.00  0.00     0.166 HD
ENDBRANCH   5   7
ENDBRANCH   1   3
BRANCH   1  25
ATOM     25  C   UNL     1     -23.942 -20.298 145.834  1.00  0.00     0.180 C 
BRANCH  25  26
ATOM     26  O   UNL     1     -22.598 -20.576 145.464  1.00  0.00    -0.394 OA
ATOM     27  H   UNL     1     -22.492 -21.544 145.476  1.00  0.00     0.210 HD
ENDBRANCH  25  26
ENDBRANCH   1  25
TORSDOF 4
ENDMDL
MODEL 19
REMARK VINA RESULT:    -7.676      3.279      6.896
REMARK INTER + INTRA:          -9.758
REMARK INTER:                  -9.521
REMARK INTRA:                  -0.238
REMARK UNBOUND:                -0.511
REMARK SMILES C[C@@H](CO)NC(=O)[C@@H]1C=C2c3cccc4[nH]cc(c34)C[C@H]2N(C)C1
REMARK SMILES IDX 2 1 1 2 5 3 7 4 6 5 8 7 24 8 9 9 22 10 10 11 21 12 11 13
REMARK SMILES IDX 20 14 19 15 12 16 18 17 15 18 13 19 17 20 16 21 14 22 23 23
REMARK SMILES IDX 3 25 4 26
REMARK H PARENT 5 6 16 24 4 27
ROOT
ATOM      1  C   UNL     1     -27.974 -10.108 141.120  1.00  0.00     0.104 C 
ATOM      2  C   UNL     1     -29.299  -9.723 141.777  1.00  0.00     0.033 C 
ENDROOT
BRANCH   1   3
ATOM      3  N   UNL     1     -27.975 -11.536 140.808  1.00  0.00    -0.351 N 
ATOM      4  O   UNL     1     -27.136 -13.598 140.785  1.00  0.00    -0.274 OA
ATOM      5  C   UNL     1     -27.220 -12.526 141.383  1.00  0.00     0.228 C 
ATOM      6  H   UNL     1     -28.341 -11.820 139.906  1.00  0.00     0.163 HD
BRANCH   5   7
ATOM      7  C   UNL     1     -26.553 -12.261 142.739  1.00  0.00     0.115 C 
ATOM      8  C   UNL     1     -25.649 -13.457 143.121  1.00  0.00     0.102 C 
ATOM      9  C   UNL     1     -27.609 -12.039 143.798  1.00  0.00    -0.007 C 
ATOM     10  N   UNL     1     -25.117 -13.407 144.498  1.00  0.00    -0.298 NA
ATOM     11  C   UNL     1     -27.475 -12.549 145.036  1.00  0.00    -0.026 C 
ATOM     12  C   UNL     1     -26.221 -13.347 145.491  1.00  0.00     0.091 C 
ATOM     13  C   UNL     1     -28.573 -12.487 146.025  1.00  0.00    -0.011 A 
ATOM     14  C   UNL     1     -26.586 -14.794 145.991  1.00  0.00     0.061 C 
ATOM     15  C   UNL     1     -28.602 -13.595 146.890  1.00  0.00     0.010 A 
ATOM     16  C   UNL     1     -29.563 -11.515 146.183  1.00  0.00     0.009 A 
ATOM     17  C   UNL     1     -27.732 -14.712 146.949  1.00  0.00    -0.020 A 
ATOM     18  C   UNL     1     -29.572 -13.730 147.868  1.00  0.00     0.046 A 
ATOM     19  C   UNL     1     -30.539 -11.657 147.180  1.00  0.00     0.003 A 
ATOM     20  C   UNL     1     -28.186 -15.522 147.964  1.00  0.00     0.087 A 
ATOM     21  N   UNL     1     -29.299 -14.918 148.512  1.00  0.00    -0.361 N 
ATOM     22  C   UNL     1     -30.568 -12.766 148.043  1.00  0.00     0.027 A 
ATOM     23  C   UNL     1     -24.181 -12.298 144.678  1.00  0.00     0.106 C 
ATOM     24  H   UNL     1     -29.843 -15.293 149.277  1.00  0.00     0.166 HD
ENDBRANCH   5   7
ENDBRANCH   1   3
BRANCH   1  25
ATOM     25  C   UNL     1     -27.715  -9.268 139.856  1.00  0.00     0.180 C 
BRANCH  25  26
ATOM     26  O   UNL     1     -28.862  -8.494 139.527  1.00  0.00    -0.394 OA
ATOM     27  H   UNL     1     -29.581  -9.119 139.325  1.00  0.00     0.210 HD
ENDBRANCH  25  26
ENDBRANCH   1  25
TORSDOF 4
ENDMDL
