MODEL 1
REMARK VINA RESULT:    -9.188      0.000      0.000
REMARK INTER + INTRA:         -11.553
REMARK INTER:                 -11.068
REMARK INTRA:                  -0.485
REMARK UNBOUND:                -0.485
REMARK SMILES C[C@@H](CO)NC(=O)[C@@H]1C=C2c3cccc4[nH]cc(c34)C[C@H]2N(C)C1
REMARK SMILES IDX 2 1 1 2 5 3 7 4 6 5 8 7 24 8 9 9 22 10 10 11 21 12 11 13
REMARK SMILES IDX 20 14 19 15 12 16 18 17 15 18 13 19 17 20 16 21 14 22 23 23
REMARK SMILES IDX 3 25 4 26
REMARK H PARENT 5 6 16 24 4 27
ROOT
ATOM      1  C   UNL     1     123.906 134.620 124.069  1.00  0.00     0.104 C 
ATOM      2  C   UNL     1     124.249 135.902 124.827  1.00  0.00     0.033 C 
ENDROOT
BRANCH   1   3
ATOM      3  N   UNL     1     125.003 133.663 124.199  1.00  0.00    -0.351 N 
ATOM      4  O   UNL     1     126.535 132.234 123.446  1.00  0.00    -0.274 OA
ATOM      5  C   UNL     1     125.890 133.260 123.235  1.00  0.00     0.228 C 
ATOM      6  H   UNL     1     124.963 133.005 124.970  1.00  0.00     0.163 HD
BRANCH   5   7
ATOM      7  C   UNL     1     126.057 134.117 121.972  1.00  0.00     0.115 C 
ATOM      8  C   UNL     1     126.629 133.252 120.824  1.00  0.00     0.102 C 
ATOM      9  C   UNL     1     126.972 135.284 122.259  1.00  0.00    -0.007 C 
ATOM     10  N   UNL     1     127.023 134.013 119.622  1.00  0.00    -0.298 NA
ATOM     11  C   UNL     1     127.889 135.690 121.361  1.00  0.00    -0.026 C 
ATOM     12  C   UNL     1     128.044 135.041 119.957  1.00  0.00     0.091 C 
ATOM     13  C   UNL     1     128.904 136.715 121.693  1.00  0.00    -0.011 A 
ATOM     14  C   UNL     1     129.491 134.471 119.720  1.00  0.00     0.061 C 
ATOM     15  C   UNL     1     130.130 136.513 121.037  1.00  0.00     0.010 A 
ATOM     16  C   UNL     1     128.805 137.800 122.566  1.00  0.00     0.009 A 
ATOM     17  C   UNL     1     130.499 135.505 120.113  1.00  0.00    -0.020 A 
ATOM     18  C   UNL     1     131.210 137.354 121.239  1.00  0.00     0.046 A 
ATOM     19  C   UNL     1     129.903 138.651 122.762  1.00  0.00     0.003 A 
ATOM     20  C   UNL     1     131.809 135.740 119.764  1.00  0.00     0.087 A 
ATOM     21  N   UNL     1     132.229 136.860 120.452  1.00  0.00    -0.361 N 
ATOM     22  C   UNL     1     131.130 138.447 122.105  1.00  0.00     0.027 A 
ATOM     23  C   UNL     1     125.867 134.611 118.955  1.00  0.00     0.106 C 
ATOM     24  H   UNL     1     133.153 137.263 120.391  1.00  0.00     0.166 HD
ENDBRANCH   5   7
ENDBRANCH   1   3
BRANCH   1  25
ATOM     25  C   UNL     1     122.582 134.015 124.571  1.00  0.00     0.180 C 
BRANCH  25  26
ATOM     26  O   UNL     1     122.116 133.019 123.671  1.00  0.00    -0.394 OA
ATOM     27  H   UNL     1     122.272 133.351 122.769  1.00  0.00     0.210 HD
ENDBRANCH  25  26
ENDBRANCH   1  25
TORSDOF 4
ENDMDL
MODEL 2
REMARK VINA RESULT:    -9.031      3.207      3.769
REMARK INTER + INTRA:         -11.363
REMARK INTER:                 -10.853
REMARK INTRA:                  -0.510
REMARK UNBOUND:                -0.485
REMARK SMILES C[C@@H](CO)NC(=O)[C@@H]1C=C2c3cccc4[nH]cc(c34)C[C@H]2N(C)C1
REMARK SMILES IDX 2 1 1 2 5 3 7 4 6 5 8 7 24 8 9 9 22 10 10 11 21 12 11 13
REMARK SMILES IDX 20 14 19 15 12 16 18 17 15 18 13 19 17 20 16 21 14 22 23 23
REMARK SMILES IDX 3 25 4 26
REMARK H PARENT 5 6 16 24 4 27
ROOT
ATOM      1  C   UNL     1     123.307 135.331 124.925  1.00  0.00     0.104 C 
ATOM      2  C   UNL     1     122.868 136.508 125.796  1.00  0.00     0.033 C 
ENDROOT
BRANCH   1   3
ATOM      3  N   UNL     1     124.763 135.326 124.802  1.00  0.00    -0.351 N 
ATOM      4  O   UNL     1     126.720 134.613 124.016  1.00  0.00    -0.274 OA
ATOM      5  C   UNL     1     125.523 134.791 123.794  1.00  0.00     0.228 C 
ATOM      6  H   UNL     1     125.306 135.466 125.647  1.00  0.00     0.163 HD
BRANCH   5   7
ATOM      7  C   UNL     1     124.858 134.477 122.447  1.00  0.00     0.115 C 
ATOM      8  C   UNL     1     124.765 132.945 122.254  1.00  0.00     0.102 C 
ATOM      9  C   UNL     1     125.651 135.103 121.323  1.00  0.00    -0.007 C 
ATOM     10  N   UNL     1     124.330 132.523 120.907  1.00  0.00    -0.298 NA
ATOM     11  C   UNL     1     125.852 134.451 120.163  1.00  0.00    -0.026 C 
ATOM     12  C   UNL     1     125.250 133.049 119.864  1.00  0.00     0.091 C 
ATOM     13  C   UNL     1     126.766 134.975 119.124  1.00  0.00    -0.011 A 
ATOM     14  C   UNL     1     126.359 131.984 119.527  1.00  0.00     0.061 C 
ATOM     15  C   UNL     1     127.419 133.964 118.399  1.00  0.00     0.010 A 
ATOM     16  C   UNL     1     127.069 136.300 118.805  1.00  0.00     0.009 A 
ATOM     17  C   UNL     1     127.301 132.556 118.515  1.00  0.00    -0.020 A 
ATOM     18  C   UNL     1     128.332 134.256 117.401  1.00  0.00     0.046 A 
ATOM     19  C   UNL     1     127.992 136.589 117.789  1.00  0.00     0.003 A 
ATOM     20  C   UNL     1     128.152 132.004 117.585  1.00  0.00     0.087 A 
ATOM     21  N   UNL     1     128.770 133.041 116.919  1.00  0.00    -0.361 N 
ATOM     22  C   UNL     1     128.645 135.576 117.066  1.00  0.00     0.027 A 
ATOM     23  C   UNL     1     122.946 132.911 120.637  1.00  0.00     0.106 C 
ATOM     24  H   UNL     1     129.451 132.930 116.181  1.00  0.00     0.166 HD
ENDBRANCH   5   7
ENDBRANCH   1   3
BRANCH   1  25
ATOM     25  C   UNL     1     122.796 133.996 125.495  1.00  0.00     0.180 C 
BRANCH  25  26
ATOM     26  O   UNL     1     122.096 133.262 124.499  1.00  0.00    -0.394 OA
ATOM     27  H   UNL     1     122.750 132.700 124.045  1.00  0.00     0.210 HD
ENDBRANCH  25  26
ENDBRANCH   1  25
TORSDOF 4
ENDMDL
MODEL 3
REMARK VINA RESULT:    -8.958      3.330      6.965
REMARK INTER + INTRA:         -11.275
REMARK INTER:                 -10.966
REMARK INTRA:                  -0.309
REMARK UNBOUND:                -0.485
REMARK SMILES C[C@@H](CO)NC(=O)[C@@H]1C=C2c3cccc4[nH]cc(c34)C[C@H]2N(C)C1
REMARK SMILES IDX 2 1 1 2 5 3 7 4 6 5 8 7 24 8 9 9 22 10 10 11 21 12 11 13
REMARK SMILES IDX 20 14 19 15 12 16 18 17 15 18 13 19 17 20 16 21 14 22 23 23
REMARK SMILES IDX 3 25 4 26
REMARK H PARENT 5 6 16 24 4 27
ROOT
ATOM      1  C   UNL     1     132.020 135.897 119.950  1.00  0.00     0.104 C 
ATOM      2  C   UNL     1     132.169 136.461 121.363  1.00  0.00     0.033 C 
ENDROOT
BRANCH   1   3
ATOM      3  N   UNL     1     131.026 136.675 119.212  1.00  0.00    -0.351 N 
ATOM      4  O   UNL     1     129.461 136.998 117.662  1.00  0.00    -0.274 OA
ATOM      5  C   UNL     1     129.992 136.209 118.442  1.00  0.00     0.228 C 
ATOM      6  H   UNL     1     131.254 137.638 118.991  1.00  0.00     0.163 HD
BRANCH   5   7
ATOM      7  C   UNL     1     129.534 134.754 118.613  1.00  0.00     0.115 C 
ATOM      8  C   UNL     1     128.499 134.399 117.520  1.00  0.00     0.102 C 
ATOM      9  C   UNL     1     128.936 134.560 119.988  1.00  0.00    -0.007 C 
ATOM     10  N   UNL     1     127.835 133.093 117.707  1.00  0.00    -0.298 NA
ATOM     11  C   UNL     1     127.837 133.805 120.172  1.00  0.00    -0.026 C 
ATOM     12  C   UNL     1     127.136 133.036 119.018  1.00  0.00     0.091 C 
ATOM     13  C   UNL     1     127.143 133.747 121.478  1.00  0.00    -0.011 A 
ATOM     14  C   UNL     1     125.628 133.457 118.852  1.00  0.00     0.061 C 
ATOM     15  C   UNL     1     125.754 133.580 121.359  1.00  0.00     0.010 A 
ATOM     16  C   UNL     1     127.676 133.860 122.763  1.00  0.00     0.009 A 
ATOM     17  C   UNL     1     124.962 133.441 120.192  1.00  0.00    -0.020 A 
ATOM     18  C   UNL     1     124.929 133.527 122.468  1.00  0.00     0.046 A 
ATOM     19  C   UNL     1     126.834 133.801 123.884  1.00  0.00     0.003 A 
ATOM     20  C   UNL     1     123.656 133.310 120.605  1.00  0.00     0.087 A 
ATOM     21  N   UNL     1     123.648 133.364 121.983  1.00  0.00    -0.361 N 
ATOM     22  C   UNL     1     125.443 133.635 123.763  1.00  0.00     0.027 A 
ATOM     23  C   UNL     1     128.773 131.981 117.557  1.00  0.00     0.106 C 
ATOM     24  H   UNL     1     122.821 133.297 122.560  1.00  0.00     0.166 HD
ENDBRANCH   5   7
ENDBRANCH   1   3
BRANCH   1  25
ATOM     25  C   UNL     1     133.371 135.885 119.212  1.00  0.00     0.180 C 
BRANCH  25  26
ATOM     26  O   UNL     1     134.448 135.921 120.140  1.00  0.00    -0.394 OA
ATOM     27  H   UNL     1     135.268 136.021 119.624  1.00  0.00     0.210 HD
ENDBRANCH  25  26
ENDBRANCH   1  25
TORSDOF 4
ENDMDL
MODEL 4
REMARK VINA RESULT:    -8.956      3.468      5.923
REMARK INTER + INTRA:         -11.273
REMARK INTER:                 -10.818
REMARK INTRA:                  -0.456
REMARK UNBOUND:                -0.485
REMARK SMILES C[C@@H](CO)NC(=O)[C@@H]1C=C2c3cccc4[nH]cc(c34)C[C@H]2N(C)C1
REMARK SMILES IDX 2 1 1 2 5 3 7 4 6 5 8 7 24 8 9 9 22 10 10 11 21 12 11 13
REMARK SMILES IDX 20 14 19 15 12 16 18 17 15 18 13 19 17 20 16 21 14 22 23 23
REMARK SMILES IDX 3 25 4 26
REMARK H PARENT 5 6 16 24 4 27
ROOT
ATOM      1  C   UNL     1     121.541 134.662 127.690  1.00  0.00     0.104 C 
ATOM      2  C   UNL     1     120.575 133.650 127.075  1.00  0.00     0.033 C 
ENDROOT
BRANCH   1   3
ATOM      3  N   UNL     1     121.593 135.863 126.857  1.00  0.00    -0.351 N 
ATOM      4  O   UNL     1     122.601 137.513 125.755  1.00  0.00    -0.274 OA
ATOM      5  C   UNL     1     122.654 136.344 126.136  1.00  0.00     0.228 C 
ATOM      6  H   UNL     1     120.897 136.581 127.027  1.00  0.00     0.163 HD
BRANCH   5   7
ATOM      7  C   UNL     1     123.824 135.404 125.815  1.00  0.00     0.115 C 
ATOM      8  C   UNL     1     125.143 136.211 125.753  1.00  0.00     0.102 C 
ATOM      9  C   UNL     1     123.575 134.700 124.502  1.00  0.00    -0.007 C 
ATOM     10  N   UNL     1     126.304 135.449 125.251  1.00  0.00    -0.298 NA
ATOM     11  C   UNL     1     124.568 134.501 123.616  1.00  0.00    -0.026 C 
ATOM     12  C   UNL     1     126.040 134.919 123.888  1.00  0.00     0.091 C 
ATOM     13  C   UNL     1     124.306 133.970 122.260  1.00  0.00    -0.011 A 
ATOM     14  C   UNL     1     126.587 135.915 122.799  1.00  0.00     0.061 C 
ATOM     15  C   UNL     1     125.184 134.479 121.288  1.00  0.00     0.010 A 
ATOM     16  C   UNL     1     123.316 133.082 121.838  1.00  0.00     0.009 A 
ATOM     17  C   UNL     1     126.264 135.384 121.438  1.00  0.00    -0.020 A 
ATOM     18  C   UNL     1     125.082 134.120 119.955  1.00  0.00     0.046 A 
ATOM     19  C   UNL     1     123.222 132.719 120.486  1.00  0.00     0.003 A 
ATOM     20  C   UNL     1     126.808 135.572 120.188  1.00  0.00     0.087 A 
ATOM     21  N   UNL     1     126.084 134.804 119.300  1.00  0.00    -0.361 N 
ATOM     22  C   UNL     1     124.100 133.230 119.515  1.00  0.00     0.027 A 
ATOM     23  C   UNL     1     126.689 134.379 126.171  1.00  0.00     0.106 C 
ATOM     24  H   UNL     1     126.261 134.748 118.306  1.00  0.00     0.166 HD
ENDBRANCH   5   7
ENDBRANCH   1   3
BRANCH   1  25
ATOM     25  C   UNL     1     121.138 135.008 129.134  1.00  0.00     0.180 C 
BRANCH  25  26
ATOM     26  O   UNL     1     119.754 134.754 129.341  1.00  0.00    -0.394 OA
ATOM     27  H   UNL     1     119.689 133.964 129.907  1.00  0.00     0.210 HD
ENDBRANCH  25  26
ENDBRANCH   1  25
TORSDOF 4
ENDMDL
MODEL 5
REMARK VINA RESULT:    -8.546      2.897      7.113
REMARK INTER + INTRA:         -10.780
REMARK INTER:                 -10.308
REMARK INTRA:                  -0.472
REMARK UNBOUND:                -0.485
REMARK SMILES C[C@@H](CO)NC(=O)[C@@H]1C=C2c3cccc4[nH]cc(c34)C[C@H]2N(C)C1
REMARK SMILES IDX 2 1 1 2 5 3 7 4 6 5 8 7 24 8 9 9 22 10 10 11 21 12 11 13
REMARK SMILES IDX 20 14 19 15 12 16 18 17 15 18 13 19 17 20 16 21 14 22 23 23
REMARK SMILES IDX 3 25 4 26
REMARK H PARENT 5 6 16 24 4 27
ROOT
ATOM      1  C   UNL     1     129.688 135.678 119.676  1.00  0.00     0.104 C 
ATOM      2  C   UNL     1     130.091 136.267 121.028  1.00  0.00     0.033 C 
ENDROOT
BRANCH   1   3
ATOM      3  N   UNL     1     128.475 136.337 119.194  1.00  0.00    -0.351 N 
ATOM      4  O   UNL     1     126.477 136.422 118.216  1.00  0.00    -0.274 OA
ATOM      5  C   UNL     1     127.267 135.764 118.891  1.00  0.00     0.228 C 
ATOM      6  H   UNL     1     128.577 137.249 118.762  1.00  0.00     0.163 HD
BRANCH   5   7
ATOM      7  C   UNL     1     126.953 134.362 119.431  1.00  0.00     0.115 C 
ATOM      8  C   UNL     1     125.898 133.678 118.529  1.00  0.00     0.102 C 
ATOM      9  C   UNL     1     126.448 134.458 120.852  1.00  0.00    -0.007 C 
ATOM     10  N   UNL     1     125.366 132.409 119.063  1.00  0.00    -0.298 NA
ATOM     11  C   UNL     1     125.433 133.688 121.286  1.00  0.00    -0.026 C 
ATOM     12  C   UNL     1     124.745 132.614 120.398  1.00  0.00     0.091 C 
ATOM     13  C   UNL     1     124.817 133.890 122.616  1.00  0.00    -0.011 A 
ATOM     14  C   UNL     1     123.199 132.867 120.248  1.00  0.00     0.061 C 
ATOM     15  C   UNL     1     123.443 133.595 122.640  1.00  0.00     0.010 A 
ATOM     16  C   UNL     1     125.403 134.348 123.798  1.00  0.00     0.009 A 
ATOM     17  C   UNL     1     122.607 133.122 121.599  1.00  0.00    -0.020 A 
ATOM     18  C   UNL     1     122.686 133.746 123.788  1.00  0.00     0.046 A 
ATOM     19  C   UNL     1     124.630 134.495 124.959  1.00  0.00     0.003 A 
ATOM     20  C   UNL     1     121.342 132.994 122.124  1.00  0.00     0.087 A 
ATOM     21  N   UNL     1     121.402 133.376 123.449  1.00  0.00    -0.361 N 
ATOM     22  C   UNL     1     123.255 134.199 124.981  1.00  0.00     0.027 A 
ATOM     23  C   UNL     1     126.392 131.367 119.110  1.00  0.00     0.106 C 
ATOM     24  H   UNL     1     120.616 133.386 124.084  1.00  0.00     0.166 HD
ENDBRANCH   5   7
ENDBRANCH   1   3
BRANCH   1  25
ATOM     25  C   UNL     1     130.830 135.806 118.652  1.00  0.00     0.180 C 
BRANCH  25  26
ATOM     26  O   UNL     1     130.408 136.560 117.524  1.00  0.00    -0.394 OA
ATOM     27  H   UNL     1     129.434 136.581 117.541  1.00  0.00     0.210 HD
ENDBRANCH  25  26
ENDBRANCH   1  25
TORSDOF 4
ENDMDL
MODEL 6
REMARK VINA RESULT:    -8.380      2.994      6.855
REMARK INTER + INTRA:         -10.580
REMARK INTER:                 -10.133
REMARK INTRA:                  -0.447
REMARK UNBOUND:                -0.485
REMARK SMILES C[C@@H](CO)NC(=O)[C@@H]1C=C2c3cccc4[nH]cc(c34)C[C@H]2N(C)C1
REMARK SMILES IDX 2 1 1 2 5 3 7 4 6 5 8 7 24 8 9 9 22 10 10 11 21 12 11 13
REMARK SMILES IDX 20 14 19 15 12 16 18 17 15 18 13 19 17 20 16 21 14 22 23 23
REMARK SMILES IDX 3 25 4 26
REMARK H PARENT 5 6 16 24 4 27
ROOT
ATOM      1  C   UNL     1     128.507 135.421 118.642  1.00  0.00     0.104 C 
ATOM      2  C   UNL     1     129.311 135.964 119.823  1.00  0.00     0.033 C 
ENDROOT
BRANCH   1   3
ATOM      3  N   UNL     1     127.214 136.100 118.574  1.00  0.00    -0.351 N 
ATOM      4  O   UNL     1     124.991 136.205 118.491  1.00  0.00    -0.274 OA
ATOM      5  C   UNL     1     125.981 135.600 118.903  1.00  0.00     0.228 C 
ATOM      6  H   UNL     1     127.141 136.911 117.969  1.00  0.00     0.163 HD
BRANCH   5   7
ATOM      7  C   UNL     1     125.896 134.346 119.784  1.00  0.00     0.115 C 
ATOM      8  C   UNL     1     124.528 133.654 119.581  1.00  0.00     0.102 C 
ATOM      9  C   UNL     1     126.086 134.723 121.235  1.00  0.00    -0.007 C 
ATOM     10  N   UNL     1     124.252 132.554 120.527  1.00  0.00    -0.298 NA
ATOM     11  C   UNL     1     125.351 134.153 122.207  1.00  0.00    -0.026 C 
ATOM     12  C   UNL     1     124.303 133.038 121.932  1.00  0.00     0.091 C 
ATOM     13  C   UNL     1     125.404 134.633 123.606  1.00  0.00    -0.011 A 
ATOM     14  C   UNL     1     122.863 133.440 122.424  1.00  0.00     0.061 C 
ATOM     15  C   UNL     1     124.179 134.504 124.282  1.00  0.00     0.010 A 
ATOM     16  C   UNL     1     126.472 135.201 124.302  1.00  0.00     0.009 A 
ATOM     17  C   UNL     1     122.949 133.971 123.821  1.00  0.00    -0.020 A 
ATOM     18  C   UNL     1     124.022 134.921 125.592  1.00  0.00     0.046 A 
ATOM     19  C   UNL     1     126.308 135.617 125.631  1.00  0.00     0.003 A 
ATOM     20  C   UNL     1     122.051 134.075 124.858  1.00  0.00     0.087 A 
ATOM     21  N   UNL     1     122.711 134.651 125.924  1.00  0.00    -0.361 N 
ATOM     22  C   UNL     1     125.081 135.488 126.306  1.00  0.00     0.027 A 
ATOM     23  C   UNL     1     125.156 131.423 120.323  1.00  0.00     0.106 C 
ATOM     24  H   UNL     1     122.295 134.851 126.822  1.00  0.00     0.166 HD
ENDBRANCH   5   7
ENDBRANCH   1   3
BRANCH   1  25
ATOM     25  C   UNL     1     129.283 135.578 117.321  1.00  0.00     0.180 C 
BRANCH  25  26
ATOM     26  O   UNL     1     130.515 136.252 117.544  1.00  0.00    -0.394 OA
ATOM     27  H   UNL     1     130.782 136.648 116.695  1.00  0.00     0.210 HD
ENDBRANCH  25  26
ENDBRANCH   1  25
TORSDOF 4
ENDMDL
MODEL 7
REMARK VINA RESULT:    -8.334      1.106      1.145
REMARK INTER + INTRA:         -10.524
REMARK INTER:                 -10.096
REMARK INTRA:                  -0.428
REMARK UNBOUND:                -0.485
REMARK SMILES C[C@@H](CO)NC(=O)[C@@H]1C=C2c3cccc4[nH]cc(c34)C[C@H]2N(C)C1
REMARK SMILES IDX 2 1 1 2 5 3 7 4 6 5 8 7 24 8 9 9 22 10 10 11 21 12 11 13
REMARK SMILES IDX 20 14 19 15 12 16 18 17 15 18 13 19 17 20 16 21 14 22 23 23
REMARK SMILES IDX 3 25 4 26
REMARK H PARENT 5 6 16 24 4 27
ROOT
ATOM      1  C   UNL     1     124.228 135.793 124.798  1.00  0.00     0.104 C 
ATOM      2  C   UNL     1     124.905 136.983 125.477  1.00  0.00     0.033 C 
ENDROOT
BRANCH   1   3
ATOM      3  N   UNL     1     125.114 134.632 124.842  1.00  0.00    -0.351 N 
ATOM      4  O   UNL     1     126.199 132.886 123.985  1.00  0.00    -0.274 OA
ATOM      5  C   UNL     1     125.753 134.018 123.796  1.00  0.00     0.228 C 
ATOM      6  H   UNL     1     125.053 134.025 125.652  1.00  0.00     0.163 HD
BRANCH   5   7
ATOM      7  C   UNL     1     125.906 134.775 122.470  1.00  0.00     0.115 C 
ATOM      8  C   UNL     1     126.247 133.780 121.335  1.00  0.00     0.102 C 
ATOM      9  C   UNL     1     126.990 135.821 122.596  1.00  0.00    -0.007 C 
ATOM     10  N   UNL     1     126.619 134.416 120.055  1.00  0.00    -0.298 NA
ATOM     11  C   UNL     1     127.860 136.050 121.596  1.00  0.00    -0.026 C 
ATOM     12  C   UNL     1     127.792 135.312 120.229  1.00  0.00     0.091 C 
ATOM     13  C   UNL     1     129.027 136.944 121.768  1.00  0.00    -0.011 A 
ATOM     14  C   UNL     1     129.123 134.538 119.903  1.00  0.00     0.061 C 
ATOM     15  C   UNL     1     130.147 136.543 121.021  1.00  0.00     0.010 A 
ATOM     16  C   UNL     1     129.155 138.077 122.573  1.00  0.00     0.009 A 
ATOM     17  C   UNL     1     130.291 135.446 120.136  1.00  0.00    -0.020 A 
ATOM     18  C   UNL     1     131.342 137.239 121.070  1.00  0.00     0.046 A 
ATOM     19  C   UNL     1     130.368 138.780 122.614  1.00  0.00     0.003 A 
ATOM     20  C   UNL     1     131.580 135.482 119.657  1.00  0.00     0.087 A 
ATOM     21  N   UNL     1     132.206 136.569 120.230  1.00  0.00    -0.361 N 
ATOM     22  C   UNL     1     131.489 138.377 121.866  1.00  0.00     0.027 A 
ATOM     23  C   UNL     1     125.491 135.129 119.455  1.00  0.00     0.106 C 
ATOM     24  H   UNL     1     133.165 136.840 120.060  1.00  0.00     0.166 HD
ENDBRANCH   5   7
ENDBRANCH   1   3
BRANCH   1  25
ATOM     25  C   UNL     1     122.871 135.478 125.453  1.00  0.00     0.180 C 
BRANCH  25  26
ATOM     26  O   UNL     1     122.076 136.653 125.547  1.00  0.00    -0.394 OA
ATOM     27  H   UNL     1     122.436 137.294 124.908  1.00  0.00     0.210 HD
ENDBRANCH  25  26
ENDBRANCH   1  25
TORSDOF 4
ENDMDL
MODEL 8
REMARK VINA RESULT:    -8.267      2.624      6.678
REMARK INTER + INTRA:         -10.444
REMARK INTER:                  -9.956
REMARK INTRA:                  -0.488
REMARK UNBOUND:                -0.485
REMARK SMILES C[C@@H](CO)NC(=O)[C@@H]1C=C2c3cccc4[nH]cc(c34)C[C@H]2N(C)C1
REMARK SMILES IDX 2 1 1 2 5 3 7 4 6 5 8 7 24 8 9 9 22 10 10 11 21 12 11 13
REMARK SMILES IDX 20 14 19 15 12 16 18 17 15 18 13 19 17 20 16 21 14 22 23 23
REMARK SMILES IDX 3 25 4 26
REMARK H PARENT 5 6 16 24 4 27
ROOT
ATOM      1  C   UNL     1     130.180 135.777 120.474  1.00  0.00     0.104 C 
ATOM      2  C   UNL     1     130.522 136.975 121.359  1.00  0.00     0.033 C 
ENDROOT
BRANCH   1   3
ATOM      3  N   UNL     1     128.874 135.982 119.851  1.00  0.00    -0.351 N 
ATOM      4  O   UNL     1     126.768 135.454 119.356  1.00  0.00    -0.274 OA
ATOM      5  C   UNL     1     127.681 135.392 120.180  1.00  0.00     0.228 C 
ATOM      6  H   UNL     1     128.857 136.366 118.912  1.00  0.00     0.163 HD
BRANCH   5   7
ATOM      7  C   UNL     1     127.534 134.723 121.553  1.00  0.00     0.115 C 
ATOM      8  C   UNL     1     126.435 133.636 121.492  1.00  0.00     0.102 C 
ATOM      9  C   UNL     1     127.193 135.760 122.598  1.00  0.00    -0.007 C 
ATOM     10  N   UNL     1     126.063 133.067 122.802  1.00  0.00    -0.298 NA
ATOM     11  C   UNL     1     126.296 135.505 123.568  1.00  0.00    -0.026 C 
ATOM     12  C   UNL     1     125.589 134.130 123.727  1.00  0.00     0.091 C 
ATOM     13  C   UNL     1     125.826 136.563 124.490  1.00  0.00    -0.011 A 
ATOM     14  C   UNL     1     124.022 134.254 123.658  1.00  0.00     0.061 C 
ATOM     15  C   UNL     1     124.490 136.393 124.891  1.00  0.00     0.010 A 
ATOM     16  C   UNL     1     126.511 137.680 124.970  1.00  0.00     0.009 A 
ATOM     17  C   UNL     1     123.575 135.364 124.558  1.00  0.00    -0.020 A 
ATOM     18  C   UNL     1     123.863 137.294 125.734  1.00  0.00     0.046 A 
ATOM     19  C   UNL     1     125.870 138.587 125.827  1.00  0.00     0.003 A 
ATOM     20  C   UNL     1     122.393 135.653 125.199  1.00  0.00     0.087 A 
ATOM     21  N   UNL     1     122.578 136.823 125.906  1.00  0.00    -0.361 N 
ATOM     22  C   UNL     1     124.533 138.416 126.227  1.00  0.00     0.027 A 
ATOM     23  C   UNL     1     127.161 132.302 123.393  1.00  0.00     0.106 C 
ATOM     24  H   UNL     1     121.873 137.276 126.471  1.00  0.00     0.166 HD
ENDBRANCH   5   7
ENDBRANCH   1   3
BRANCH   1  25
ATOM     25  C   UNL     1     131.269 135.543 119.411  1.00  0.00     0.180 C 
BRANCH  25  26
ATOM     26  O   UNL     1     130.840 136.023 118.143  1.00  0.00    -0.394 OA
ATOM     27  H   UNL     1     129.935 135.692 118.002  1.00  0.00     0.210 HD
ENDBRANCH  25  26
ENDBRANCH   1  25
TORSDOF 4
ENDMDL
MODEL 9
REMARK VINA RESULT:    -7.966      3.401      4.180
REMARK INTER + INTRA:         -10.081
REMARK INTER:                  -9.680
REMARK INTRA:                  -0.401
REMARK UNBOUND:                -0.485
REMARK SMILES C[C@@H](CO)NC(=O)[C@@H]1C=C2c3cccc4[nH]cc(c34)C[C@H]2N(C)C1
REMARK SMILES IDX 2 1 1 2 5 3 7 4 6 5 8 7 24 8 9 9 22 10 10 11 21 12 11 13
REMARK SMILES IDX 20 14 19 15 12 16 18 17 15 18 13 19 17 20 16 21 14 22 23 23
REMARK SMILES IDX 3 25 4 26
REMARK H PARENT 5 6 16 24 4 27
ROOT
ATOM      1  C   UNL     1     123.430 135.602 125.498  1.00  0.00     0.104 C 
ATOM      2  C   UNL     1     123.008 137.066 125.386  1.00  0.00     0.033 C 
ENDROOT
BRANCH   1   3
ATOM      3  N   UNL     1     124.871 135.487 125.277  1.00  0.00    -0.351 N 
ATOM      4  O   UNL     1     126.712 134.622 124.370  1.00  0.00    -0.274 OA
ATOM      5  C   UNL     1     125.519 134.888 124.228  1.00  0.00     0.228 C 
ATOM      6  H   UNL     1     125.479 135.592 126.082  1.00  0.00     0.163 HD
BRANCH   5   7
ATOM      7  C   UNL     1     124.742 134.612 122.933  1.00  0.00     0.115 C 
ATOM      8  C   UNL     1     124.447 133.099 122.811  1.00  0.00     0.102 C 
ATOM      9  C   UNL     1     125.539 135.092 121.742  1.00  0.00    -0.007 C 
ATOM     10  N   UNL     1     123.885 132.687 121.509  1.00  0.00    -0.298 NA
ATOM     11  C   UNL     1     125.589 134.379 120.602  1.00  0.00    -0.026 C 
ATOM     12  C   UNL     1     124.801 133.055 120.397  1.00  0.00     0.091 C 
ATOM     13  C   UNL     1     126.498 134.746 119.494  1.00  0.00    -0.011 A 
ATOM     14  C   UNL     1     125.747 131.847 120.046  1.00  0.00     0.061 C 
ATOM     15  C   UNL     1     126.977 133.635 118.779  1.00  0.00     0.010 A 
ATOM     16  C   UNL     1     126.944 136.010 119.103  1.00  0.00     0.009 A 
ATOM     17  C   UNL     1     126.692 132.258 118.961  1.00  0.00    -0.020 A 
ATOM     18  C   UNL     1     127.859 133.773 117.722  1.00  0.00     0.046 A 
ATOM     19  C   UNL     1     127.835 136.143 118.028  1.00  0.00     0.003 A 
ATOM     20  C   UNL     1     127.411 131.570 118.012  1.00  0.00     0.087 A 
ATOM     21  N   UNL     1     128.113 132.496 117.269  1.00  0.00    -0.361 N 
ATOM     22  C   UNL     1     128.313 135.030 117.314  1.00  0.00     0.027 A 
ATOM     23  C   UNL     1     122.546 133.237 121.297  1.00  0.00     0.106 C 
ATOM     24  H   UNL     1     128.731 132.273 116.501  1.00  0.00     0.166 HD
ENDBRANCH   5   7
ENDBRANCH   1   3
BRANCH   1  25
ATOM     25  C   UNL     1     123.032 135.011 126.862  1.00  0.00     0.180 C 
BRANCH  25  26
ATOM     26  O   UNL     1     121.819 135.592 127.323  1.00  0.00    -0.394 OA
ATOM     27  H   UNL     1     121.091 135.030 127.003  1.00  0.00     0.210 HD
ENDBRANCH  25  26
ENDBRANCH   1  25
TORSDOF 4
ENDMDL
MODEL 10
REMARK VINA RESULT:    -7.942      3.362      6.385
REMARK INTER + INTRA:         -10.052
REMARK INTER:                  -9.861
REMARK INTRA:                  -0.191
REMARK UNBOUND:                -0.485
REMARK SMILES C[C@@H](CO)NC(=O)[C@@H]1C=C2c3cccc4[nH]cc(c34)C[C@H]2N(C)C1
REMARK SMILES IDX 2 1 1 2 5 3 7 4 6 5 8 7 24 8 9 9 22 10 10 11 21 12 11 13
REMARK SMILES IDX 20 14 19 15 12 16 18 17 15 18 13 19 17 20 16 21 14 22 23 23
REMARK SMILES IDX 3 25 4 26
REMARK H PARENT 5 6 16 24 4 27
ROOT
ATOM      1  C   UNL     1     127.394 132.813 118.654  1.00  0.00     0.104 C 
ATOM      2  C   UNL     1     128.569 132.597 117.701  1.00  0.00     0.033 C 
ENDROOT
BRANCH   1   3
ATOM      3  N   UNL     1     127.062 134.236 118.710  1.00  0.00    -0.351 N 
ATOM      4  O   UNL     1     126.053 136.042 119.532  1.00  0.00    -0.274 OA
ATOM      5  C   UNL     1     126.550 134.942 119.768  1.00  0.00     0.228 C 
ATOM      6  H   UNL     1     126.912 134.718 117.830  1.00  0.00     0.163 HD
BRANCH   5   7
ATOM      7  C   UNL     1     126.653 134.347 121.179  1.00  0.00     0.115 C 
ATOM      8  C   UNL     1     125.492 133.351 121.413  1.00  0.00     0.102 C 
ATOM      9  C   UNL     1     126.614 135.452 122.209  1.00  0.00    -0.007 C 
ATOM     10  N   UNL     1     125.369 132.871 122.804  1.00  0.00    -0.298 NA
ATOM     11  C   UNL     1     125.928 135.313 123.358  1.00  0.00    -0.026 C 
ATOM     12  C   UNL     1     125.177 134.008 123.742  1.00  0.00     0.091 C 
ATOM     13  C   UNL     1     125.739 136.444 124.293  1.00  0.00    -0.011 A 
ATOM     14  C   UNL     1     123.643 134.255 123.994  1.00  0.00     0.061 C 
ATOM     15  C   UNL     1     124.510 136.401 124.973  1.00  0.00     0.010 A 
ATOM     16  C   UNL     1     126.587 137.523 124.552  1.00  0.00     0.009 A 
ATOM     17  C   UNL     1     123.476 135.435 124.900  1.00  0.00    -0.020 A 
ATOM     18  C   UNL     1     124.141 137.385 125.873  1.00  0.00     0.046 A 
ATOM     19  C   UNL     1     126.207 138.515 125.469  1.00  0.00     0.003 A 
ATOM     20  C   UNL     1     122.480 135.846 125.755  1.00  0.00     0.087 A 
ATOM     21  N   UNL     1     122.893 137.027 126.337  1.00  0.00    -0.361 N 
ATOM     22  C   UNL     1     124.977 138.470 126.148  1.00  0.00     0.027 A 
ATOM     23  C   UNL     1     126.511 132.046 123.197  1.00  0.00     0.106 C 
ATOM     24  H   UNL     1     122.357 137.559 127.009  1.00  0.00     0.166 HD
ENDBRANCH   5   7
ENDBRANCH   1   3
BRANCH   1  25
ATOM     25  C   UNL     1     126.173 131.977 118.231  1.00  0.00     0.180 C 
BRANCH  25  26
ATOM     26  O   UNL     1     126.462 130.588 118.326  1.00  0.00    -0.394 OA
ATOM     27  H   UNL     1     126.994 130.461 119.132  1.00  0.00     0.210 HD
ENDBRANCH  25  26
ENDBRANCH   1  25
TORSDOF 4
ENDMDL
MODEL 11
REMARK VINA RESULT:    -7.842      2.321      3.322
REMARK INTER + INTRA:          -9.931
REMARK INTER:                  -9.573
REMARK INTRA:                  -0.358
REMARK UNBOUND:                -0.485
REMARK SMILES C[C@@H](CO)NC(=O)[C@@H]1C=C2c3cccc4[nH]cc(c34)C[C@H]2N(C)C1
REMARK SMILES IDX 2 1 1 2 5 3 7 4 6 5 8 7 24 8 9 9 22 10 10 11 21 12 11 13
REMARK SMILES IDX 20 14 19 15 12 16 18 17 15 18 13 19 17 20 16 21 14 22 23 23
REMARK SMILES IDX 3 25 4 26
REMARK H PARENT 5 6 16 24 4 27
ROOT
ATOM      1  C   UNL     1     122.955 134.383 125.209  1.00  0.00     0.104 C 
ATOM      2  C   UNL     1     122.002 134.029 124.068  1.00  0.00     0.033 C 
ENDROOT
BRANCH   1   3
ATOM      3  N   UNL     1     123.598 135.666 124.932  1.00  0.00    -0.351 N 
ATOM      4  O   UNL     1     125.310 137.002 124.440  1.00  0.00    -0.274 OA
ATOM      5  C   UNL     1     124.796 135.892 124.305  1.00  0.00     0.228 C 
ATOM      6  H   UNL     1     123.308 136.466 125.485  1.00  0.00     0.163 HD
BRANCH   5   7
ATOM      7  C   UNL     1     125.411 134.775 123.451  1.00  0.00     0.115 C 
ATOM      8  C   UNL     1     126.760 134.329 124.063  1.00  0.00     0.102 C 
ATOM      9  C   UNL     1     125.610 135.261 122.034  1.00  0.00    -0.007 C 
ATOM     10  N   UNL     1     127.540 133.405 123.216  1.00  0.00    -0.298 NA
ATOM     11  C   UNL     1     126.715 134.941 121.334  1.00  0.00    -0.026 C 
ATOM     12  C   UNL     1     127.832 134.016 121.893  1.00  0.00     0.091 C 
ATOM     13  C   UNL     1     127.003 135.547 120.016  1.00  0.00    -0.011 A 
ATOM     14  C   UNL     1     129.236 134.725 121.916  1.00  0.00     0.061 C 
ATOM     15  C   UNL     1     128.376 135.719 119.774  1.00  0.00     0.010 A 
ATOM     16  C   UNL     1     126.112 135.979 119.031  1.00  0.00     0.009 A 
ATOM     17  C   UNL     1     129.482 135.376 120.591  1.00  0.00    -0.020 A 
ATOM     18  C   UNL     1     128.844 136.292 118.605  1.00  0.00     0.046 A 
ATOM     19  C   UNL     1     126.594 136.556 117.847  1.00  0.00     0.003 A 
ATOM     20  C   UNL     1     130.617 135.751 119.910  1.00  0.00     0.087 A 
ATOM     21  N   UNL     1     130.219 136.305 118.711  1.00  0.00    -0.361 N 
ATOM     22  C   UNL     1     127.968 136.727 117.607  1.00  0.00     0.027 A 
ATOM     23  C   UNL     1     126.875 132.111 123.069  1.00  0.00     0.106 C 
ATOM     24  H   UNL     1     130.844 136.672 118.007  1.00  0.00     0.166 HD
ENDBRANCH   5   7
ENDBRANCH   1   3
BRANCH   1  25
ATOM     25  C   UNL     1     122.217 134.415 126.559  1.00  0.00     0.180 C 
BRANCH  25  26
ATOM     26  O   UNL     1     121.032 133.632 126.500  1.00  0.00    -0.394 OA
ATOM     27  H   UNL     1     120.359 134.088 127.036  1.00  0.00     0.210 HD
ENDBRANCH  25  26
ENDBRANCH   1  25
TORSDOF 4
ENDMDL
MODEL 12
REMARK VINA RESULT:    -7.587      3.257      4.961
REMARK INTER + INTRA:          -9.624
REMARK INTER:                  -9.432
REMARK INTRA:                  -0.193
REMARK UNBOUND:                -0.485
REMARK SMILES C[C@@H](CO)NC(=O)[C@@H]1C=C2c3cccc4[nH]cc(c34)C[C@H]2N(C)C1
REMARK SMILES IDX 2 1 1 2 5 3 7 4 6 5 8 7 24 8 9 9 22 10 10 11 21 12 11 13
REMARK SMILES IDX 20 14 19 15 12 16 18 17 15 18 13 19 17 20 16 21 14 22 23 23
REMARK SMILES IDX 3 25 4 26
REMARK H PARENT 5 6 16 24 4 27
ROOT
ATOM      1  C   UNL     1     125.891 131.808 118.201  1.00  0.00     0.104 C 
ATOM      2  C   UNL     1     125.389 131.423 119.592  1.00  0.00     0.033 C 
ENDROOT
BRANCH   1   3
ATOM      3  N   UNL     1     127.349 131.708 118.159  1.00  0.00    -0.351 N 
ATOM      4  O   UNL     1     129.399 132.339 117.562  1.00  0.00    -0.274 OA
ATOM      5  C   UNL     1     128.253 132.689 117.841  1.00  0.00     0.228 C 
ATOM      6  H   UNL     1     127.754 130.782 118.073  1.00  0.00     0.163 HD
BRANCH   5   7
ATOM      7  C   UNL     1     127.804 134.156 117.879  1.00  0.00     0.115 C 
ATOM      8  C   UNL     1     128.993 135.077 117.518  1.00  0.00     0.102 C 
ATOM      9  C   UNL     1     127.272 134.496 119.252  1.00  0.00    -0.007 C 
ATOM     10  N   UNL     1     128.736 136.517 117.722  1.00  0.00    -0.298 NA
ATOM     11  C   UNL     1     127.546 135.677 119.835  1.00  0.00    -0.026 C 
ATOM     12  C   UNL     1     128.369 136.795 119.136  1.00  0.00     0.091 C 
ATOM     13  C   UNL     1     127.179 135.955 121.242  1.00  0.00    -0.011 A 
ATOM     14  C   UNL     1     129.647 137.199 119.961  1.00  0.00     0.061 C 
ATOM     15  C   UNL     1     128.090 136.803 121.894  1.00  0.00     0.010 A 
ATOM     16  C   UNL     1     126.095 135.476 121.980  1.00  0.00     0.009 A 
ATOM     17  C   UNL     1     129.260 137.423 121.390  1.00  0.00    -0.020 A 
ATOM     18  C   UNL     1     127.931 137.159 123.222  1.00  0.00     0.046 A 
ATOM     19  C   UNL     1     125.938 135.844 123.324  1.00  0.00     0.003 A 
ATOM     20  C   UNL     1     129.807 138.149 122.423  1.00  0.00     0.087 A 
ATOM     21  N   UNL     1     128.995 137.981 123.525  1.00  0.00    -0.361 N 
ATOM     22  C   UNL     1     126.851 136.692 123.976  1.00  0.00     0.027 A 
ATOM     23  C   UNL     1     127.718 137.022 116.801  1.00  0.00     0.106 C 
ATOM     24  H   UNL     1     129.157 138.399 124.431  1.00  0.00     0.166 HD
ENDBRANCH   5   7
ENDBRANCH   1   3
BRANCH   1  25
ATOM     25  C   UNL     1     125.246 130.928 117.114  1.00  0.00     0.180 C 
BRANCH  25  26
ATOM     26  O   UNL     1     126.054 130.907 115.945  1.00  0.00    -0.394 OA
ATOM     27  H   UNL     1     125.544 131.340 115.236  1.00  0.00     0.210 HD
ENDBRANCH  25  26
ENDBRANCH   1  25
TORSDOF 4
ENDMDL
MODEL 13
REMARK VINA RESULT:    -7.586      2.072      3.777
REMARK INTER + INTRA:          -9.623
REMARK INTER:                  -9.789
REMARK INTRA:                   0.166
REMARK UNBOUND:                -0.485
REMARK SMILES C[C@@H](CO)NC(=O)[C@@H]1C=C2c3cccc4[nH]cc(c34)C[C@H]2N(C)C1
REMARK SMILES IDX 2 1 1 2 5 3 7 4 6 5 8 7 24 8 9 9 22 10 10 11 21 12 11 13
REMARK SMILES IDX 20 14 19 15 12 16 18 17 15 18 13 19 17 20 16 21 14 22 23 23
REMARK SMILES IDX 3 25 4 26
REMARK H PARENT 5 6 16 24 4 27
ROOT
ATOM      1  C   UNL     1     123.810 132.500 119.621  1.00  0.00     0.104 C 
ATOM      2  C   UNL     1     122.937 132.900 120.810  1.00  0.00     0.033 C 
ENDROOT
BRANCH   1   3
ATOM      3  N   UNL     1     124.263 133.700 118.917  1.00  0.00    -0.351 N 
ATOM      4  O   UNL     1     125.108 135.754 118.768  1.00  0.00    -0.274 OA
ATOM      5  C   UNL     1     125.091 134.688 119.382  1.00  0.00     0.228 C 
ATOM      6  H   UNL     1     123.717 134.011 118.122  1.00  0.00     0.163 HD
BRANCH   5   7
ATOM      7  C   UNL     1     125.970 134.407 120.609  1.00  0.00     0.115 C 
ATOM      8  C   UNL     1     125.552 135.334 121.775  1.00  0.00     0.102 C 
ATOM      9  C   UNL     1     127.425 134.621 120.261  1.00  0.00    -0.007 C 
ATOM     10  N   UNL     1     126.459 135.298 122.940  1.00  0.00    -0.298 NA
ATOM     11  C   UNL     1     128.269 135.215 121.124  1.00  0.00    -0.026 C 
ATOM     12  C   UNL     1     127.842 135.673 122.547  1.00  0.00     0.091 C 
ATOM     13  C   UNL     1     129.648 135.586 120.733  1.00  0.00    -0.011 A 
ATOM     14  C   UNL     1     128.077 137.212 122.773  1.00  0.00     0.061 C 
ATOM     15  C   UNL     1     130.110 136.750 121.369  1.00  0.00     0.010 A 
ATOM     16  C   UNL     1     130.503 134.960 119.824  1.00  0.00     0.009 A 
ATOM     17  C   UNL     1     129.458 137.573 122.321  1.00  0.00    -0.020 A 
ATOM     18  C   UNL     1     131.367 137.269 121.115  1.00  0.00     0.046 A 
ATOM     19  C   UNL     1     131.777 135.490 119.574  1.00  0.00     0.003 A 
ATOM     20  C   UNL     1     130.327 138.593 122.634  1.00  0.00     0.087 A 
ATOM     21  N   UNL     1     131.477 138.399 121.897  1.00  0.00    -0.361 N 
ATOM     22  C   UNL     1     132.238 136.656 120.211  1.00  0.00     0.027 A 
ATOM     23  C   UNL     1     126.431 133.998 123.610  1.00  0.00     0.106 C 
ATOM     24  H   UNL     1     132.289 139.001 121.924  1.00  0.00     0.166 HD
ENDBRANCH   5   7
ENDBRANCH   1   3
BRANCH   1  25
ATOM     25  C   UNL     1     125.005 131.641 120.072  1.00  0.00     0.180 C 
BRANCH  25  26
ATOM     26  O   UNL     1     124.901 131.328 121.455  1.00  0.00    -0.394 OA
ATOM     27  H   UNL     1     123.963 131.139 121.636  1.00  0.00     0.210 HD
ENDBRANCH  25  26
ENDBRANCH   1  25
TORSDOF 4
ENDMDL
MODEL 14
REMARK VINA RESULT:    -7.485      4.368      6.740
REMARK INTER + INTRA:          -9.501
REMARK INTER:                  -9.450
REMARK INTRA:                  -0.051
REMARK UNBOUND:                -0.485
REMARK SMILES C[C@@H](CO)NC(=O)[C@@H]1C=C2c3cccc4[nH]cc(c34)C[C@H]2N(C)C1
REMARK SMILES IDX 2 1 1 2 5 3 7 4 6 5 8 7 24 8 9 9 22 10 10 11 21 12 11 13
REMARK SMILES IDX 20 14 19 15 12 16 18 17 15 18 13 19 17 20 16 21 14 22 23 23
REMARK SMILES IDX 3 25 4 26
REMARK H PARENT 5 6 16 24 4 27
ROOT
ATOM      1  C   UNL     1     122.639 138.110 126.531  1.00  0.00     0.104 C 
ATOM      2  C   UNL     1     121.489 137.767 125.585  1.00  0.00     0.033 C 
ENDROOT
BRANCH   1   3
ATOM      3  N   UNL     1     123.763 138.647 125.764  1.00  0.00    -0.351 N 
ATOM      4  O   UNL     1     125.900 138.809 125.159  1.00  0.00    -0.274 OA
ATOM      5  C   UNL     1     124.995 138.079 125.564  1.00  0.00     0.228 C 
ATOM      6  H   UNL     1     123.777 139.645 125.588  1.00  0.00     0.163 HD
BRANCH   5   7
ATOM      7  C   UNL     1     125.173 136.576 125.819  1.00  0.00     0.115 C 
ATOM      8  C   UNL     1     126.605 136.144 125.426  1.00  0.00     0.102 C 
ATOM      9  C   UNL     1     124.150 135.795 125.028  1.00  0.00    -0.007 C 
ATOM     10  N   UNL     1     126.828 134.684 125.434  1.00  0.00    -0.298 NA
ATOM     11  C   UNL     1     124.474 134.642 124.414  1.00  0.00    -0.026 C 
ATOM     12  C   UNL     1     125.885 133.998 124.512  1.00  0.00     0.091 C 
ATOM     13  C   UNL     1     123.534 133.958 123.497  1.00  0.00    -0.011 A 
ATOM     14  C   UNL     1     126.550 133.803 123.099  1.00  0.00     0.061 C 
ATOM     15  C   UNL     1     124.179 133.283 122.447  1.00  0.00     0.010 A 
ATOM     16  C   UNL     1     122.139 133.924 123.531  1.00  0.00     0.009 A 
ATOM     17  C   UNL     1     125.564 133.158 122.175  1.00  0.00    -0.020 A 
ATOM     18  C   UNL     1     123.468 132.604 121.473  1.00  0.00     0.046 A 
ATOM     19  C   UNL     1     121.426 133.230 122.543  1.00  0.00     0.003 A 
ATOM     20  C   UNL     1     125.683 132.405 121.030  1.00  0.00     0.087 A 
ATOM     21  N   UNL     1     124.409 132.077 120.614  1.00  0.00    -0.361 N 
ATOM     22  C   UNL     1     122.072 132.556 121.492  1.00  0.00     0.027 A 
ATOM     23  C   UNL     1     126.744 134.131 126.786  1.00  0.00     0.106 C 
ATOM     24  H   UNL     1     124.192 131.528 119.793  1.00  0.00     0.166 HD
ENDBRANCH   5   7
ENDBRANCH   1   3
BRANCH   1  25
ATOM     25  C   UNL     1     122.188 139.103 127.617  1.00  0.00     0.180 C 
BRANCH  25  26
ATOM     26  O   UNL     1     122.837 140.357 127.449  1.00  0.00    -0.394 OA
ATOM     27  H   UNL     1     123.245 140.352 126.565  1.00  0.00     0.210 HD
ENDBRANCH  25  26
ENDBRANCH   1  25
TORSDOF 4
ENDMDL
MODEL 15
REMARK VINA RESULT:    -7.426      2.943      4.700
REMARK INTER + INTRA:          -9.430
REMARK INTER:                  -9.432
REMARK INTRA:                   0.002
REMARK UNBOUND:                -0.485
REMARK SMILES C[C@@H](CO)NC(=O)[C@@H]1C=C2c3cccc4[nH]cc(c34)C[C@H]2N(C)C1
REMARK SMILES IDX 2 1 1 2 5 3 7 4 6 5 8 7 24 8 9 9 22 10 10 11 21 12 11 13
REMARK SMILES IDX 20 14 19 15 12 16 18 17 15 18 13 19 17 20 16 21 14 22 23 23
REMARK SMILES IDX 3 25 4 26
REMARK H PARENT 5 6 16 24 4 27
ROOT
ATOM      1  C   UNL     1     122.462 134.436 125.404  1.00  0.00     0.104 C 
ATOM      2  C   UNL     1     121.786 133.738 126.584  1.00  0.00     0.033 C 
ENDROOT
BRANCH   1   3
ATOM      3  N   UNL     1     121.994 133.846 124.150  1.00  0.00    -0.351 N 
ATOM      4  O   UNL     1     122.099 133.382 121.975  1.00  0.00    -0.274 OA
ATOM      5  C   UNL     1     122.721 133.588 123.017  1.00  0.00     0.228 C 
ATOM      6  H   UNL     1     120.999 133.879 123.958  1.00  0.00     0.163 HD
BRANCH   5   7
ATOM      7  C   UNL     1     124.252 133.538 123.109  1.00  0.00     0.115 C 
ATOM      8  C   UNL     1     124.812 134.965 123.311  1.00  0.00     0.102 C 
ATOM      9  C   UNL     1     124.824 132.920 121.854  1.00  0.00    -0.007 C 
ATOM     10  N   UNL     1     126.282 135.066 123.209  1.00  0.00    -0.298 NA
ATOM     11  C   UNL     1     125.942 133.405 121.283  1.00  0.00    -0.026 C 
ATOM     12  C   UNL     1     126.756 134.584 121.885  1.00  0.00     0.091 C 
ATOM     13  C   UNL     1     126.415 132.924 119.966  1.00  0.00    -0.011 A 
ATOM     14  C   UNL     1     126.890 135.789 120.881  1.00  0.00     0.061 C 
ATOM     15  C   UNL     1     127.055 133.920 119.210  1.00  0.00     0.010 A 
ATOM     16  C   UNL     1     126.284 131.657 119.394  1.00  0.00     0.009 A 
ATOM     17  C   UNL     1     127.318 135.272 119.543  1.00  0.00    -0.020 A 
ATOM     18  C   UNL     1     127.545 133.668 117.941  1.00  0.00     0.046 A 
ATOM     19  C   UNL     1     126.787 131.408 118.108  1.00  0.00     0.003 A 
ATOM     20  C   UNL     1     127.963 135.834 118.466  1.00  0.00     0.087 A 
ATOM     21  N   UNL     1     128.094 134.855 117.503  1.00  0.00    -0.361 N 
ATOM     22  C   UNL     1     127.427 132.407 117.352  1.00  0.00     0.027 A 
ATOM     23  C   UNL     1     126.952 134.361 124.301  1.00  0.00     0.106 C 
ATOM     24  H   UNL     1     128.529 134.986 116.600  1.00  0.00     0.166 HD
ENDBRANCH   5   7
ENDBRANCH   1   3
BRANCH   1  25
ATOM     25  C   UNL     1     122.201 135.953 125.431  1.00  0.00     0.180 C 
BRANCH  25  26
ATOM     26  O   UNL     1     121.673 136.346 126.691  1.00  0.00    -0.394 OA
ATOM     27  H   UNL     1     121.417 137.283 126.615  1.00  0.00     0.210 HD
ENDBRANCH  25  26
ENDBRANCH   1  25
TORSDOF 4
ENDMDL
MODEL 16
REMARK VINA RESULT:    -7.420      2.761      6.973
REMARK INTER + INTRA:          -9.422
REMARK INTER:                  -9.032
REMARK INTRA:                  -0.390
REMARK UNBOUND:                -0.485
REMARK SMILES C[C@@H](CO)NC(=O)[C@@H]1C=C2c3cccc4[nH]cc(c34)C[C@H]2N(C)C1
REMARK SMILES IDX 2 1 1 2 5 3 7 4 6 5 8 7 24 8 9 9 22 10 10 11 21 12 11 13
REMARK SMILES IDX 20 14 19 15 12 16 18 17 15 18 13 19 17 20 16 21 14 22 23 23
REMARK SMILES IDX 3 25 4 26
REMARK H PARENT 5 6 16 24 4 27
ROOT
ATOM      1  C   UNL     1     130.182 135.695 119.446  1.00  0.00     0.104 C 
ATOM      2  C   UNL     1     131.704 135.558 119.471  1.00  0.00     0.033 C 
ENDROOT
BRANCH   1   3
ATOM      3  N   UNL     1     129.758 136.653 120.466  1.00  0.00    -0.351 N 
ATOM      4  O   UNL     1     128.322 137.577 121.895  1.00  0.00    -0.274 OA
ATOM      5  C   UNL     1     128.701 136.550 121.333  1.00  0.00     0.228 C 
ATOM      6  H   UNL     1     130.069 137.614 120.366  1.00  0.00     0.163 HD
BRANCH   5   7
ATOM      7  C   UNL     1     128.072 135.172 121.579  1.00  0.00     0.115 C 
ATOM      8  C   UNL     1     126.811 135.006 120.699  1.00  0.00     0.102 C 
ATOM      9  C   UNL     1     127.717 135.022 123.041  1.00  0.00    -0.007 C 
ATOM     10  N   UNL     1     126.008 133.805 121.000  1.00  0.00    -0.298 NA
ATOM     11  C   UNL     1     126.573 134.428 123.425  1.00  0.00    -0.026 C 
ATOM     12  C   UNL     1     125.564 133.806 122.419  1.00  0.00     0.091 C 
ATOM     13  C   UNL     1     126.132 134.427 124.837  1.00  0.00    -0.011 A 
ATOM     14  C   UNL     1     124.130 134.444 122.542  1.00  0.00     0.061 C 
ATOM     15  C   UNL     1     124.735 134.466 124.981  1.00  0.00     0.010 A 
ATOM     16  C   UNL     1     126.904 134.420 126.000  1.00  0.00     0.009 A 
ATOM     17  C   UNL     1     123.729 134.482 123.983  1.00  0.00    -0.020 A 
ATOM     18  C   UNL     1     124.131 134.496 126.226  1.00  0.00     0.046 A 
ATOM     19  C   UNL     1     126.285 134.446 127.259  1.00  0.00     0.003 A 
ATOM     20  C   UNL     1     122.517 134.527 124.634  1.00  0.00     0.087 A 
ATOM     21  N   UNL     1     122.774 134.536 125.990  1.00  0.00    -0.361 N 
ATOM     22  C   UNL     1     124.887 134.486 127.401  1.00  0.00     0.027 A 
ATOM     23  C   UNL     1     126.727 132.574 120.671  1.00  0.00     0.106 C 
ATOM     24  H   UNL     1     122.067 134.569 126.711  1.00  0.00     0.166 HD
ENDBRANCH   5   7
ENDBRANCH   1   3
BRANCH   1  25
ATOM     25  C   UNL     1     129.685 136.117 118.052  1.00  0.00     0.180 C 
BRANCH  25  26
ATOM     26  O   UNL     1     130.783 136.403 117.195  1.00  0.00    -0.394 OA
ATOM     27  H   UNL     1     130.425 136.506 116.295  1.00  0.00     0.210 HD
ENDBRANCH  25  26
ENDBRANCH   1  25
TORSDOF 4
ENDMDL
MODEL 17
REMARK VINA RESULT:    -7.080      2.739      4.543
REMARK INTER + INTRA:          -9.013
REMARK INTER:                  -9.795
REMARK INTRA:                   0.782
REMARK UNBOUND:                -0.485
REMARK SMILES C[C@@H](CO)NC(=O)[C@@H]1C=C2c3cccc4[nH]cc(c34)C[C@H]2N(C)C1
REMARK SMILES IDX 2 1 1 2 5 3 7 4 6 5 8 7 24 8 9 9 22 10 10 11 21 12 11 13
REMARK SMILES IDX 20 14 19 15 12 16 18 17 15 18 13 19 17 20 16 21 14 22 23 23
REMARK SMILES IDX 3 25 4 26
REMARK H PARENT 5 6 16 24 4 27
ROOT
ATOM      1  C   UNL     1     127.565 135.816 122.545  1.00  0.00     0.104 C 
ATOM      2  C   UNL     1     128.538 134.658 122.326  1.00  0.00     0.033 C 
ENDROOT
BRANCH   1   3
ATOM      3  N   UNL     1     126.677 135.508 123.665  1.00  0.00    -0.351 N 
ATOM      4  O   UNL     1     124.705 135.265 124.670  1.00  0.00    -0.274 OA
ATOM      5  C   UNL     1     125.344 135.188 123.621  1.00  0.00     0.228 C 
ATOM      6  H   UNL     1     126.957 135.823 124.587  1.00  0.00     0.163 HD
BRANCH   5   7
ATOM      7  C   UNL     1     124.733 134.724 122.292  1.00  0.00     0.115 C 
ATOM      8  C   UNL     1     124.722 133.178 122.232  1.00  0.00     0.102 C 
ATOM      9  C   UNL     1     125.523 135.291 121.136  1.00  0.00    -0.007 C 
ATOM     10  N   UNL     1     124.346 132.620 120.917  1.00  0.00    -0.298 NA
ATOM     11  C   UNL     1     125.789 134.553 120.042  1.00  0.00    -0.026 C 
ATOM     12  C   UNL     1     125.267 133.102 119.854  1.00  0.00     0.091 C 
ATOM     13  C   UNL     1     126.703 135.034 118.982  1.00  0.00    -0.011 A 
ATOM     14  C   UNL     1     126.436 132.071 119.636  1.00  0.00     0.061 C 
ATOM     15  C   UNL     1     127.425 134.000 118.364  1.00  0.00     0.010 A 
ATOM     16  C   UNL     1     126.946 136.341 118.556  1.00  0.00     0.009 A 
ATOM     17  C   UNL     1     127.376 132.603 118.599  1.00  0.00    -0.020 A 
ATOM     18  C   UNL     1     128.349 134.253 117.365  1.00  0.00     0.046 A 
ATOM     19  C   UNL     1     127.881 136.589 117.540  1.00  0.00     0.003 A 
ATOM     20  C   UNL     1     128.278 132.018 117.741  1.00  0.00     0.087 A 
ATOM     21  N   UNL     1     128.861 133.026 117.001  1.00  0.00    -0.361 N 
ATOM     22  C   UNL     1     128.604 135.553 116.923  1.00  0.00     0.027 A 
ATOM     23  C   UNL     1     122.952 132.909 120.583  1.00  0.00     0.106 C 
ATOM     24  H   UNL     1     129.567 132.887 116.291  1.00  0.00     0.166 HD
ENDBRANCH   5   7
ENDBRANCH   1   3
BRANCH   1  25
ATOM     25  C   UNL     1     128.318 137.137 122.786  1.00  0.00     0.180 C 
BRANCH  25  26
ATOM     26  O   UNL     1     127.773 137.826 123.903  1.00  0.00    -0.394 OA
ATOM     27  H   UNL     1     128.128 138.733 123.882  1.00  0.00     0.210 HD
ENDBRANCH  25  26
ENDBRANCH   1  25
TORSDOF 4
ENDMDL
MODEL 18
REMARK VINA RESULT:    -7.051      3.437      6.056
REMARK INTER + INTRA:          -8.978
REMARK INTER:                  -9.943
REMARK INTRA:                   0.965
REMARK UNBOUND:                -0.485
REMARK SMILES C[C@@H](CO)NC(=O)[C@@H]1C=C2c3cccc4[nH]cc(c34)C[C@H]2N(C)C1
REMARK SMILES IDX 2 1 1 2 5 3 7 4 6 5 8 7 24 8 9 9 22 10 10 11 21 12 11 13
REMARK SMILES IDX 20 14 19 15 12 16 18 17 15 18 13 19 17 20 16 21 14 22 23 23
REMARK SMILES IDX 3 25 4 26
REMARK H PARENT 5 6 16 24 4 27
ROOT
ATOM      1  C   UNL     1     123.238 137.681 126.385  1.00  0.00     0.104 C 
ATOM      2  C   UNL     1     123.208 138.983 127.184  1.00  0.00     0.033 C 
ENDROOT
BRANCH   1   3
ATOM      3  N   UNL     1     122.133 136.820 126.805  1.00  0.00    -0.351 N 
ATOM      4  O   UNL     1     120.876 134.983 126.761  1.00  0.00    -0.274 OA
ATOM      5  C   UNL     1     121.998 135.469 126.616  1.00  0.00     0.228 C 
ATOM      6  H   UNL     1     121.242 137.263 127.001  1.00  0.00     0.163 HD
BRANCH   5   7
ATOM      7  C   UNL     1     123.240 134.637 126.273  1.00  0.00     0.115 C 
ATOM      8  C   UNL     1     124.515 135.486 126.488  1.00  0.00     0.102 C 
ATOM      9  C   UNL     1     123.160 134.159 124.841  1.00  0.00    -0.007 C 
ATOM     10  N   UNL     1     125.758 134.860 125.994  1.00  0.00    -0.298 NA
ATOM     11  C   UNL     1     124.247 134.147 124.047  1.00  0.00    -0.026 C 
ATOM     12  C   UNL     1     125.661 134.561 124.541  1.00  0.00     0.091 C 
ATOM     13  C   UNL     1     124.150 133.847 122.601  1.00  0.00    -0.011 A 
ATOM     14  C   UNL     1     126.263 135.746 123.699  1.00  0.00     0.061 C 
ATOM     15  C   UNL     1     125.094 134.543 121.827  1.00  0.00     0.010 A 
ATOM     16  C   UNL     1     123.254 133.011 121.934  1.00  0.00     0.009 A 
ATOM     17  C   UNL     1     126.106 135.445 122.241  1.00  0.00    -0.020 A 
ATOM     18  C   UNL     1     125.146 134.413 120.451  1.00  0.00     0.046 A 
ATOM     19  C   UNL     1     123.315 132.881 120.538  1.00  0.00     0.003 A 
ATOM     20  C   UNL     1     126.763 135.861 121.106  1.00  0.00     0.087 A 
ATOM     21  N   UNL     1     126.173 135.231 120.030  1.00  0.00    -0.361 N 
ATOM     22  C   UNL     1     124.259 133.579 119.765  1.00  0.00     0.027 A 
ATOM     23  C   UNL     1     126.103 133.662 126.760  1.00  0.00     0.106 C 
ATOM     24  H   UNL     1     126.451 135.352 119.066  1.00  0.00     0.166 HD
ENDBRANCH   5   7
ENDBRANCH   1   3
BRANCH   1  25
ATOM     25  C   UNL     1     123.181 137.955 124.871  1.00  0.00     0.180 C 
BRANCH  25  26
ATOM     26  O   UNL     1     123.571 139.293 124.591  1.00  0.00    -0.394 OA
ATOM     27  H   UNL     1     123.256 139.844 125.330  1.00  0.00     0.210 HD
ENDBRANCH  25  26
ENDBRANCH   1  25
TORSDOF 4
ENDMDL
MODEL 19
REMARK VINA RESULT:    -7.034      2.418      4.859
REMARK INTER + INTRA:          -8.958
REMARK INTER:                  -9.167
REMARK INTRA:                   0.209
REMARK UNBOUND:                -0.485
REMARK SMILES C[C@@H](CO)NC(=O)[C@@H]1C=C2c3cccc4[nH]cc(c34)C[C@H]2N(C)C1
REMARK SMILES IDX 2 1 1 2 5 3 7 4 6 5 8 7 24 8 9 9 22 10 10 11 21 12 11 13
REMARK SMILES IDX 20 14 19 15 12 16 18 17 15 18 13 19 17 20 16 21 14 22 23 23
REMARK SMILES IDX 3 25 4 26
REMARK H PARENT 5 6 16 24 4 27
ROOT
ATOM      1  C   UNL     1     121.534 135.274 126.728  1.00  0.00     0.104 C 
ATOM      2  C   UNL     1     122.342 135.433 128.016  1.00  0.00     0.033 C 
ENDROOT
BRANCH   1   3
ATOM      3  N   UNL     1     121.737 136.443 125.873  1.00  0.00    -0.351 N 
ATOM      4  O   UNL     1     122.928 138.064 124.918  1.00  0.00    -0.274 OA
ATOM      5  C   UNL     1     122.914 136.911 125.348  1.00  0.00     0.228 C 
ATOM      6  H   UNL     1     121.018 137.158 125.878  1.00  0.00     0.163 HD
BRANCH   5   7
ATOM      7  C   UNL     1     124.129 135.975 125.295  1.00  0.00     0.115 C 
ATOM      8  C   UNL     1     125.406 136.751 125.695  1.00  0.00     0.102 C 
ATOM      9  C   UNL     1     124.275 135.400 123.905  1.00  0.00    -0.007 C 
ATOM     10  N   UNL     1     126.665 136.008 125.482  1.00  0.00    -0.298 NA
ATOM     11  C   UNL     1     125.485 135.257 123.331  1.00  0.00    -0.026 C 
ATOM     12  C   UNL     1     126.812 135.611 124.058  1.00  0.00     0.091 C 
ATOM     13  C   UNL     1     125.631 134.860 121.914  1.00  0.00    -0.011 A 
ATOM     14  C   UNL     1     127.650 136.689 123.275  1.00  0.00     0.061 C 
ATOM     15  C   UNL     1     126.753 135.433 121.292  1.00  0.00     0.010 A 
ATOM     16  C   UNL     1     124.809 134.038 121.140  1.00  0.00     0.009 A 
ATOM     17  C   UNL     1     127.740 136.293 121.834  1.00  0.00    -0.020 A 
ATOM     18  C   UNL     1     127.046 135.200 119.959  1.00  0.00     0.046 A 
ATOM     19  C   UNL     1     125.114 133.803 119.791  1.00  0.00     0.003 A 
ATOM     20  C   UNL     1     128.625 136.580 120.820  1.00  0.00     0.087 A 
ATOM     21  N   UNL     1     128.194 135.914 119.691  1.00  0.00    -0.361 N 
ATOM     22  C   UNL     1     126.237 134.378 119.170  1.00  0.00     0.027 A 
ATOM     23  C   UNL     1     126.768 134.850 126.369  1.00  0.00     0.106 C 
ATOM     24  H   UNL     1     128.652 135.946 118.791  1.00  0.00     0.166 HD
ENDBRANCH   5   7
ENDBRANCH   1   3
BRANCH   1  25
ATOM     25  C   UNL     1     121.914 133.978 125.990  1.00  0.00     0.180 C 
BRANCH  25  26
ATOM     26  O   UNL     1     121.259 133.911 124.730  1.00  0.00    -0.394 OA
ATOM     27  H   UNL     1     121.373 134.778 124.301  1.00  0.00     0.210 HD
ENDBRANCH  25  26
ENDBRANCH   1  25
TORSDOF 4
ENDMDL
