MODEL 1
REMARK VINA RESULT:    -9.381      0.000      0.000
REMARK INTER + INTRA:         -11.321
REMARK INTER:                 -11.300
REMARK INTRA:                  -0.021
REMARK UNBOUND:                -0.021
REMARK SMILES C[C@@H](CO)NC(=O)[C@@H]1C=C2c3cccc4[nH]cc(c34)C[C@H]2N(C)C1
REMARK SMILES IDX 2 1 1 2 5 3 7 4 6 5 8 7 24 8 9 9 22 10 10 11 21 12 11 13
REMARK SMILES IDX 20 14 19 15 12 16 18 17 15 18 13 19 17 20 16 21 14 22 23 23
REMARK SMILES IDX 3 25 4 26
REMARK H PARENT 5 6 16 24 4 27
ROOT
ATOM      1  C   UNL     1     -13.626 -19.882  26.240  1.00  0.00     0.104 C 
ATOM      2  C   UNL     1     -15.041 -19.307  26.308  1.00  0.00     0.033 C 
ENDROOT
BRANCH   1   3
ATOM      3  N   UNL     1     -12.667 -18.885  26.714  1.00  0.00    -0.351 N 
ATOM      4  O   UNL     1     -10.690 -18.179  27.454  1.00  0.00    -0.274 OA
ATOM      5  C   UNL     1     -11.300 -18.979  26.745  1.00  0.00     0.228 C 
ATOM      6  H   UNL     1     -13.009 -18.167  27.344  1.00  0.00     0.163 HD
BRANCH   5   7
ATOM      7  C   UNL     1     -10.606 -20.040  25.880  1.00  0.00     0.115 C 
ATOM      8  C   UNL     1      -9.080 -20.005  26.132  1.00  0.00     0.102 C 
ATOM      9  C   UNL     1     -10.905 -19.791  24.420  1.00  0.00    -0.007 C 
ATOM     10  N   UNL     1      -8.288 -20.840  25.207  1.00  0.00    -0.298 NA
ATOM     11  C   UNL     1      -9.958 -19.942  23.477  1.00  0.00    -0.026 C 
ATOM     12  C   UNL     1      -8.517 -20.431  23.796  1.00  0.00     0.091 C 
ATOM     13  C   UNL     1     -10.187 -19.538  22.072  1.00  0.00    -0.011 A 
ATOM     14  C   UNL     1      -7.422 -19.395  23.343  1.00  0.00     0.061 C 
ATOM     15  C   UNL     1      -9.025 -19.070  21.435  1.00  0.00     0.010 A 
ATOM     16  C   UNL     1     -11.374 -19.539  21.338  1.00  0.00     0.009 A 
ATOM     17  C   UNL     1      -7.705 -18.961  21.938  1.00  0.00    -0.020 A 
ATOM     18  C   UNL     1      -9.043 -18.623  20.125  1.00  0.00     0.046 A 
ATOM     19  C   UNL     1     -11.384 -19.088  20.010  1.00  0.00     0.003 A 
ATOM     20  C   UNL     1      -6.930 -18.442  20.927  1.00  0.00     0.087 A 
ATOM     21  N   UNL     1      -7.750 -18.240  19.836  1.00  0.00    -0.361 N 
ATOM     22  C   UNL     1     -10.221 -18.619  19.374  1.00  0.00     0.027 A 
ATOM     23  C   UNL     1      -8.557 -22.265  25.396  1.00  0.00     0.106 C 
ATOM     24  H   UNL     1      -7.449 -17.863  18.949  1.00  0.00     0.166 HD
ENDBRANCH   5   7
ENDBRANCH   1   3
BRANCH   1  25
ATOM     25  C   UNL     1     -13.517 -21.184  27.054  1.00  0.00     0.180 C 
BRANCH  25  26
ATOM     26  O   UNL     1     -14.762 -21.870  27.069  1.00  0.00    -0.394 OA
ATOM     27  H   UNL     1     -14.904 -22.227  26.174  1.00  0.00     0.210 HD
ENDBRANCH  25  26
ENDBRANCH   1  25
TORSDOF 4
ENDMDL
MODEL 2
REMARK VINA RESULT:    -8.855      2.380      3.363
REMARK INTER + INTRA:         -10.687
REMARK INTER:                 -10.514
REMARK INTRA:                  -0.173
REMARK UNBOUND:                -0.021
REMARK SMILES C[C@@H](CO)NC(=O)[C@@H]1C=C2c3cccc4[nH]cc(c34)C[C@H]2N(C)C1
REMARK SMILES IDX 2 1 1 2 5 3 7 4 6 5 8 7 24 8 9 9 22 10 10 11 21 12 11 13
REMARK SMILES IDX 20 14 19 15 12 16 18 17 15 18 13 19 17 20 16 21 14 22 23 23
REMARK SMILES IDX 3 25 4 26
REMARK H PARENT 5 6 16 24 4 27
ROOT
ATOM      1  C   UNL     1     -14.451 -17.840  23.256  1.00  0.00     0.104 C 
ATOM      2  C   UNL     1     -14.206 -16.676  22.296  1.00  0.00     0.033 C 
ENDROOT
BRANCH   1   3
ATOM      3  N   UNL     1     -13.954 -17.494  24.586  1.00  0.00    -0.351 N 
ATOM      4  O   UNL     1     -13.302 -17.921  26.672  1.00  0.00    -0.274 OA
ATOM      5  C   UNL     1     -13.368 -18.321  25.510  1.00  0.00     0.228 C 
ATOM      6  H   UNL     1     -14.311 -16.647  25.015  1.00  0.00     0.163 HD
BRANCH   5   7
ATOM      7  C   UNL     1     -12.803 -19.671  25.048  1.00  0.00     0.115 C 
ATOM      8  C   UNL     1     -12.145 -20.400  26.243  1.00  0.00     0.102 C 
ATOM      9  C   UNL     1     -11.796 -19.456  23.941  1.00  0.00    -0.007 C 
ATOM     10  N   UNL     1     -11.387 -21.614  25.877  1.00  0.00    -0.298 NA
ATOM     11  C   UNL     1     -10.656 -20.170  23.886  1.00  0.00    -0.026 C 
ATOM     12  C   UNL     1     -10.312 -21.294  24.902  1.00  0.00     0.091 C 
ATOM     13  C   UNL     1      -9.587 -19.853  22.914  1.00  0.00    -0.011 A 
ATOM     14  C   UNL     1      -8.956 -21.022  25.654  1.00  0.00     0.061 C 
ATOM     15  C   UNL     1      -8.297 -20.118  23.404  1.00  0.00     0.010 A 
ATOM     16  C   UNL     1      -9.696 -19.319  21.628  1.00  0.00     0.009 A 
ATOM     17  C   UNL     1      -7.904 -20.652  24.656  1.00  0.00    -0.020 A 
ATOM     18  C   UNL     1      -7.165 -19.864  22.650  1.00  0.00     0.046 A 
ATOM     19  C   UNL     1      -8.543 -19.068  20.868  1.00  0.00     0.003 A 
ATOM     20  C   UNL     1      -6.529 -20.713  24.654  1.00  0.00     0.087 A 
ATOM     21  N   UNL     1      -6.094 -20.232  23.436  1.00  0.00    -0.361 N 
ATOM     22  C   UNL     1      -7.253 -19.333  21.361  1.00  0.00     0.027 A 
ATOM     23  C   UNL     1     -12.265 -22.669  25.372  1.00  0.00     0.106 C 
ATOM     24  H   UNL     1      -5.125 -20.158  23.157  1.00  0.00     0.166 HD
ENDBRANCH   5   7
ENDBRANCH   1   3
BRANCH   1  25
ATOM     25  C   UNL     1     -15.943 -18.217  23.303  1.00  0.00     0.180 C 
BRANCH  25  26
ATOM     26  O   UNL     1     -16.280 -19.059  22.209  1.00  0.00    -0.394 OA
ATOM     27  H   UNL     1     -16.819 -18.529  21.595  1.00  0.00     0.210 HD
ENDBRANCH  25  26
ENDBRANCH   1  25
TORSDOF 4
ENDMDL
MODEL 3
REMARK VINA RESULT:    -8.721      7.045     10.037
REMARK INTER + INTRA:         -10.526
REMARK INTER:                 -10.127
REMARK INTRA:                  -0.399
REMARK UNBOUND:                -0.021
REMARK SMILES C[C@@H](CO)NC(=O)[C@@H]1C=C2c3cccc4[nH]cc(c34)C[C@H]2N(C)C1
REMARK SMILES IDX 2 1 1 2 5 3 7 4 6 5 8 7 24 8 9 9 22 10 10 11 21 12 11 13
REMARK SMILES IDX 20 14 19 15 12 16 18 17 15 18 13 19 17 20 16 21 14 22 23 23
REMARK SMILES IDX 3 25 4 26
REMARK H PARENT 5 6 16 24 4 27
ROOT
ATOM      1  C   UNL     1     -16.896 -13.752  14.674  1.00  0.00     0.104 C 
ATOM      2  C   UNL     1     -17.450 -12.536  15.418  1.00  0.00     0.033 C 
ENDROOT
BRANCH   1   3
ATOM      3  N   UNL     1     -17.297 -14.976  15.366  1.00  0.00    -0.351 N 
ATOM      4  O   UNL     1     -17.016 -17.049  16.127  1.00  0.00    -0.274 OA
ATOM      5  C   UNL     1     -16.491 -15.968  15.860  1.00  0.00     0.228 C 
ATOM      6  H   UNL     1     -18.251 -15.296  15.237  1.00  0.00     0.163 HD
BRANCH   5   7
ATOM      7  C   UNL     1     -15.002 -15.675  16.085  1.00  0.00     0.115 C 
ATOM      8  C   UNL     1     -14.144 -16.618  15.209  1.00  0.00     0.102 C 
ATOM      9  C   UNL     1     -14.656 -15.853  17.545  1.00  0.00    -0.007 C 
ATOM     10  N   UNL     1     -12.696 -16.568  15.493  1.00  0.00    -0.298 NA
ATOM     11  C   UNL     1     -13.502 -16.433  17.925  1.00  0.00    -0.026 C 
ATOM     12  C   UNL     1     -12.422 -16.908  16.913  1.00  0.00     0.091 C 
ATOM     13  C   UNL     1     -13.229 -16.769  19.340  1.00  0.00    -0.011 A 
ATOM     14  C   UNL     1     -12.106 -18.443  17.057  1.00  0.00     0.061 C 
ATOM     15  C   UNL     1     -12.447 -17.926  19.492  1.00  0.00     0.010 A 
ATOM     16  C   UNL     1     -13.659 -16.118  20.498  1.00  0.00     0.009 A 
ATOM     17  C   UNL     1     -11.886 -18.769  18.501  1.00  0.00    -0.020 A 
ATOM     18  C   UNL     1     -12.105 -18.415  20.741  1.00  0.00     0.046 A 
ATOM     19  C   UNL     1     -13.305 -16.617  21.760  1.00  0.00     0.003 A 
ATOM     20  C   UNL     1     -11.210 -19.770  19.159  1.00  0.00     0.087 A 
ATOM     21  N   UNL     1     -11.351 -19.546  20.514  1.00  0.00    -0.361 N 
ATOM     22  C   UNL     1     -12.523 -17.776  21.911  1.00  0.00     0.027 A 
ATOM     23  C   UNL     1     -12.117 -15.273  15.136  1.00  0.00     0.106 C 
ATOM     24  H   UNL     1     -10.959 -20.129  21.240  1.00  0.00     0.166 HD
ENDBRANCH   5   7
ENDBRANCH   1   3
BRANCH   1  25
ATOM     25  C   UNL     1     -17.364 -13.767  13.208  1.00  0.00     0.180 C 
BRANCH  25  26
ATOM     26  O   UNL     1     -16.350 -13.251  12.355  1.00  0.00    -0.394 OA
ATOM     27  H   UNL     1     -16.798 -12.797  11.619  1.00  0.00     0.210 HD
ENDBRANCH  25  26
ENDBRANCH   1  25
TORSDOF 4
ENDMDL
MODEL 4
REMARK VINA RESULT:    -8.624      3.743      6.869
REMARK INTER + INTRA:         -10.409
REMARK INTER:                 -10.110
REMARK INTRA:                  -0.299
REMARK UNBOUND:                -0.021
REMARK SMILES C[C@@H](CO)NC(=O)[C@@H]1C=C2c3cccc4[nH]cc(c34)C[C@H]2N(C)C1
REMARK SMILES IDX 2 1 1 2 5 3 7 4 6 5 8 7 24 8 9 9 22 10 10 11 21 12 11 13
REMARK SMILES IDX 20 14 19 15 12 16 18 17 15 18 13 19 17 20 16 21 14 22 23 23
REMARK SMILES IDX 3 25 4 26
REMARK H PARENT 5 6 16 24 4 27
ROOT
ATOM      1  C   UNL     1     -12.148 -17.699  17.742  1.00  0.00     0.104 C 
ATOM      2  C   UNL     1     -13.485 -17.070  18.133  1.00  0.00     0.033 C 
ENDROOT
BRANCH   1   3
ATOM      3  N   UNL     1     -12.223 -19.151  17.895  1.00  0.00    -0.351 N 
ATOM      4  O   UNL     1     -11.448 -21.165  18.440  1.00  0.00    -0.274 OA
ATOM      5  C   UNL     1     -11.437 -19.958  18.677  1.00  0.00     0.228 C 
ATOM      6  H   UNL     1     -12.692 -19.676  17.165  1.00  0.00     0.163 HD
BRANCH   5   7
ATOM      7  C   UNL     1     -10.621 -19.328  19.813  1.00  0.00     0.115 C 
ATOM      8  C   UNL     1      -9.735 -20.405  20.482  1.00  0.00     0.102 C 
ATOM      9  C   UNL     1     -11.548 -18.703  20.829  1.00  0.00    -0.007 C 
ATOM     10  N   UNL     1      -9.060 -19.962  21.717  1.00  0.00    -0.298 NA
ATOM     11  C   UNL     1     -11.308 -18.803  22.149  1.00  0.00    -0.026 C 
ATOM     12  C   UNL     1     -10.049 -19.507  22.729  1.00  0.00     0.091 C 
ATOM     13  C   UNL     1     -12.292 -18.348  23.156  1.00  0.00    -0.011 A 
ATOM     14  C   UNL     1     -10.422 -20.690  23.698  1.00  0.00     0.061 C 
ATOM     15  C   UNL     1     -12.279 -19.118  24.331  1.00  0.00     0.010 A 
ATOM     16  C   UNL     1     -13.216 -17.304  23.075  1.00  0.00     0.009 A 
ATOM     17  C   UNL     1     -11.457 -20.221  24.673  1.00  0.00    -0.020 A 
ATOM     18  C   UNL     1     -13.145 -18.863  25.379  1.00  0.00     0.046 A 
ATOM     19  C   UNL     1     -14.088 -17.048  24.144  1.00  0.00     0.003 A 
ATOM     20  C   UNL     1     -11.837 -20.631  25.930  1.00  0.00     0.087 A 
ATOM     21  N   UNL     1     -12.859 -19.803  26.347  1.00  0.00    -0.361 N 
ATOM     22  C   UNL     1     -14.073 -17.821  25.318  1.00  0.00     0.027 A 
ATOM     23  C   UNL     1      -8.062 -18.926  21.449  1.00  0.00     0.106 C 
ATOM     24  H   UNL     1     -13.334 -19.874  27.235  1.00  0.00     0.166 HD
ENDBRANCH   5   7
ENDBRANCH   1   3
BRANCH   1  25
ATOM     25  C   UNL     1     -11.754 -17.315  16.304  1.00  0.00     0.180 C 
BRANCH  25  26
ATOM     26  O   UNL     1     -10.708 -18.154  15.832  1.00  0.00    -0.394 OA
ATOM     27  H   UNL     1     -10.143 -18.365  16.597  1.00  0.00     0.210 HD
ENDBRANCH  25  26
ENDBRANCH   1  25
TORSDOF 4
ENDMDL
MODEL 5
REMARK VINA RESULT:    -8.619      5.203      6.839
REMARK INTER + INTRA:         -10.403
REMARK INTER:                  -9.968
REMARK INTRA:                  -0.435
REMARK UNBOUND:                -0.021
REMARK SMILES C[C@@H](CO)NC(=O)[C@@H]1C=C2c3cccc4[nH]cc(c34)C[C@H]2N(C)C1
REMARK SMILES IDX 2 1 1 2 5 3 7 4 6 5 8 7 24 8 9 9 22 10 10 11 21 12 11 13
REMARK SMILES IDX 20 14 19 15 12 16 18 17 15 18 13 19 17 20 16 21 14 22 23 23
REMARK SMILES IDX 3 25 4 26
REMARK H PARENT 5 6 16 24 4 27
ROOT
ATOM      1  C   UNL     1     -14.174 -18.783  25.063  1.00  0.00     0.104 C 
ATOM      2  C   UNL     1     -15.684 -18.673  25.266  1.00  0.00     0.033 C 
ENDROOT
BRANCH   1   3
ATOM      3  N   UNL     1     -13.608 -17.453  24.847  1.00  0.00    -0.351 N 
ATOM      4  O   UNL     1     -12.549 -15.874  23.688  1.00  0.00    -0.274 OA
ATOM      5  C   UNL     1     -13.291 -16.855  23.654  1.00  0.00     0.228 C 
ATOM      6  H   UNL     1     -13.128 -17.014  25.625  1.00  0.00     0.163 HD
BRANCH   5   7
ATOM      7  C   UNL     1     -13.898 -17.411  22.359  1.00  0.00     0.115 C 
ATOM      8  C   UNL     1     -12.771 -17.732  21.349  1.00  0.00     0.102 C 
ATOM      9  C   UNL     1     -14.863 -16.408  21.770  1.00  0.00    -0.007 C 
ATOM     10  N   UNL     1     -13.244 -18.079  19.994  1.00  0.00    -0.298 NA
ATOM     11  C   UNL     1     -14.922 -16.191  20.443  1.00  0.00    -0.026 C 
ATOM     12  C   UNL     1     -14.058 -16.977  19.418  1.00  0.00     0.091 C 
ATOM     13  C   UNL     1     -15.734 -15.095  19.869  1.00  0.00    -0.011 A 
ATOM     14  C   UNL     1     -13.154 -16.028  18.547  1.00  0.00     0.061 C 
ATOM     15  C   UNL     1     -15.174 -14.541  18.706  1.00  0.00     0.010 A 
ATOM     16  C   UNL     1     -16.929 -14.547  20.339  1.00  0.00     0.009 A 
ATOM     17  C   UNL     1     -13.986 -14.899  18.022  1.00  0.00    -0.020 A 
ATOM     18  C   UNL     1     -15.775 -13.489  18.038  1.00  0.00     0.046 A 
ATOM     19  C   UNL     1     -17.535 -13.483  19.654  1.00  0.00     0.003 A 
ATOM     20  C   UNL     1     -13.872 -14.054  16.943  1.00  0.00     0.087 A 
ATOM     21  N   UNL     1     -14.960 -13.205  16.963  1.00  0.00    -0.361 N 
ATOM     22  C   UNL     1     -16.973 -12.930  18.490  1.00  0.00     0.027 A 
ATOM     23  C   UNL     1     -13.979 -19.344  19.983  1.00  0.00     0.106 C 
ATOM     24  H   UNL     1     -15.136 -12.475  16.287  1.00  0.00     0.166 HD
ENDBRANCH   5   7
ENDBRANCH   1   3
BRANCH   1  25
ATOM     25  C   UNL     1     -13.501 -19.481  26.260  1.00  0.00     0.180 C 
BRANCH  25  26
ATOM     26  O   UNL     1     -12.690 -18.564  26.981  1.00  0.00    -0.394 OA
ATOM     27  H   UNL     1     -12.593 -17.769  26.427  1.00  0.00     0.210 HD
ENDBRANCH  25  26
ENDBRANCH   1  25
TORSDOF 4
ENDMDL
MODEL 6
REMARK VINA RESULT:    -8.578      7.961     10.584
REMARK INTER + INTRA:         -10.354
REMARK INTER:                  -9.856
REMARK INTRA:                  -0.498
REMARK UNBOUND:                -0.021
REMARK SMILES C[C@@H](CO)NC(=O)[C@@H]1C=C2c3cccc4[nH]cc(c34)C[C@H]2N(C)C1
REMARK SMILES IDX 2 1 1 2 5 3 7 4 6 5 8 7 24 8 9 9 22 10 10 11 21 12 11 13
REMARK SMILES IDX 20 14 19 15 12 16 18 17 15 18 13 19 17 20 16 21 14 22 23 23
REMARK SMILES IDX 3 25 4 26
REMARK H PARENT 5 6 16 24 4 27
ROOT
ATOM      1  C   UNL     1     -18.067 -13.608  14.653  1.00  0.00     0.104 C 
ATOM      2  C   UNL     1     -17.704 -14.812  13.784  1.00  0.00     0.033 C 
ENDROOT
BRANCH   1   3
ATOM      3  N   UNL     1     -16.847 -12.979  15.156  1.00  0.00    -0.351 N 
ATOM      4  O   UNL     1     -15.485 -12.187  16.729  1.00  0.00    -0.274 OA
ATOM      5  C   UNL     1     -16.340 -13.020  16.429  1.00  0.00     0.228 C 
ATOM      6  H   UNL     1     -16.465 -12.204  14.625  1.00  0.00     0.163 HD
BRANCH   5   7
ATOM      7  C   UNL     1     -16.834 -14.107  17.393  1.00  0.00     0.115 C 
ATOM      8  C   UNL     1     -16.738 -13.598  18.851  1.00  0.00     0.102 C 
ATOM      9  C   UNL     1     -16.011 -15.363  17.218  1.00  0.00    -0.007 C 
ATOM     10  N   UNL     1     -16.991 -14.629  19.877  1.00  0.00    -0.298 NA
ATOM     11  C   UNL     1     -15.628 -16.100  18.276  1.00  0.00    -0.026 C 
ATOM     12  C   UNL     1     -16.040 -15.763  19.736  1.00  0.00     0.091 C 
ATOM     13  C   UNL     1     -14.682 -17.230  18.136  1.00  0.00    -0.011 A 
ATOM     14  C   UNL     1     -14.792 -15.547  20.672  1.00  0.00     0.061 C 
ATOM     15  C   UNL     1     -13.855 -17.402  19.259  1.00  0.00     0.010 A 
ATOM     16  C   UNL     1     -14.500 -18.096  17.056  1.00  0.00     0.009 A 
ATOM     17  C   UNL     1     -13.826 -16.673  20.474  1.00  0.00    -0.020 A 
ATOM     18  C   UNL     1     -12.889 -18.391  19.307  1.00  0.00     0.046 A 
ATOM     19  C   UNL     1     -13.521 -19.099  17.114  1.00  0.00     0.003 A 
ATOM     20  C   UNL     1     -12.835 -17.226  21.251  1.00  0.00     0.087 A 
ATOM     21  N   UNL     1     -12.274 -18.263  20.534  1.00  0.00    -0.361 N 
ATOM     22  C   UNL     1     -12.693 -19.269  18.238  1.00  0.00     0.027 A 
ATOM     23  C   UNL     1     -18.378 -15.095  19.848  1.00  0.00     0.106 C 
ATOM     24  H   UNL     1     -11.517 -18.848  20.860  1.00  0.00     0.166 HD
ENDBRANCH   5   7
ENDBRANCH   1   3
BRANCH   1  25
ATOM     25  C   UNL     1     -18.928 -12.598  13.873  1.00  0.00     0.180 C 
BRANCH  25  26
ATOM     26  O   UNL     1     -18.159 -11.458  13.515  1.00  0.00    -0.394 OA
ATOM     27  H   UNL     1     -17.578 -11.255  14.270  1.00  0.00     0.210 HD
ENDBRANCH  25  26
ENDBRANCH   1  25
TORSDOF 4
ENDMDL
MODEL 7
REMARK VINA RESULT:    -8.563      3.282      6.333
REMARK INTER + INTRA:         -10.336
REMARK INTER:                 -10.395
REMARK INTRA:                   0.059
REMARK UNBOUND:                -0.021
REMARK SMILES C[C@@H](CO)NC(=O)[C@@H]1C=C2c3cccc4[nH]cc(c34)C[C@H]2N(C)C1
REMARK SMILES IDX 2 1 1 2 5 3 7 4 6 5 8 7 24 8 9 9 22 10 10 11 21 12 11 13
REMARK SMILES IDX 20 14 19 15 12 16 18 17 15 18 13 19 17 20 16 21 14 22 23 23
REMARK SMILES IDX 3 25 4 26
REMARK H PARENT 5 6 16 24 4 27
ROOT
ATOM      1  C   UNL     1      -7.364 -20.513  23.564  1.00  0.00     0.104 C 
ATOM      2  C   UNL     1      -8.235 -20.181  24.775  1.00  0.00     0.033 C 
ENDROOT
BRANCH   1   3
ATOM      3  N   UNL     1      -7.115 -19.299  22.789  1.00  0.00    -0.351 N 
ATOM      4  O   UNL     1      -7.176 -18.018  20.969  1.00  0.00    -0.274 OA
ATOM      5  C   UNL     1      -7.727 -18.898  21.630  1.00  0.00     0.228 C 
ATOM      6  H   UNL     1      -6.227 -18.828  22.927  1.00  0.00     0.163 HD
BRANCH   5   7
ATOM      7  C   UNL     1      -9.068 -19.534  21.237  1.00  0.00     0.115 C 
ATOM      8  C   UNL     1      -9.577 -18.909  19.916  1.00  0.00     0.102 C 
ATOM      9  C   UNL     1     -10.079 -19.329  22.341  1.00  0.00    -0.007 C 
ATOM     10  N   UNL     1     -10.954 -19.295  19.548  1.00  0.00    -0.298 NA
ATOM     11  C   UNL     1     -11.361 -19.026  22.067  1.00  0.00    -0.026 C 
ATOM     12  C   UNL     1     -11.914 -18.919  20.619  1.00  0.00     0.091 C 
ATOM     13  C   UNL     1     -12.318 -18.654  23.133  1.00  0.00    -0.011 A 
ATOM     14  C   UNL     1     -12.537 -17.505  20.321  1.00  0.00     0.061 C 
ATOM     15  C   UNL     1     -13.279 -17.720  22.713  1.00  0.00     0.010 A 
ATOM     16  C   UNL     1     -12.364 -19.080  24.462  1.00  0.00     0.009 A 
ATOM     17  C   UNL     1     -13.459 -17.127  21.438  1.00  0.00    -0.020 A 
ATOM     18  C   UNL     1     -14.245 -17.231  23.574  1.00  0.00     0.046 A 
ATOM     19  C   UNL     1     -13.349 -18.583  25.328  1.00  0.00     0.003 A 
ATOM     20  C   UNL     1     -14.535 -16.276  21.539  1.00  0.00     0.087 A 
ATOM     21  N   UNL     1     -15.001 -16.346  22.836  1.00  0.00    -0.361 N 
ATOM     22  C   UNL     1     -14.310 -17.648  24.906  1.00  0.00     0.027 A 
ATOM     23  C   UNL     1     -11.051 -20.718  19.224  1.00  0.00     0.106 C 
ATOM     24  H   UNL     1     -15.786 -15.822  23.197  1.00  0.00     0.166 HD
ENDBRANCH   5   7
ENDBRANCH   1   3
BRANCH   1  25
ATOM     25  C   UNL     1      -6.042 -21.175  23.994  1.00  0.00     0.180 C 
BRANCH  25  26
ATOM     26  O   UNL     1      -5.108 -21.168  22.923  1.00  0.00    -0.394 OA
ATOM     27  H   UNL     1      -5.494 -20.628  22.209  1.00  0.00     0.210 HD
ENDBRANCH  25  26
ENDBRANCH   1  25
TORSDOF 4
ENDMDL
MODEL 8
REMARK VINA RESULT:    -8.482      3.296      5.488
REMARK INTER + INTRA:         -10.238
REMARK INTER:                 -10.019
REMARK INTRA:                  -0.219
REMARK UNBOUND:                -0.021
REMARK SMILES C[C@@H](CO)NC(=O)[C@@H]1C=C2c3cccc4[nH]cc(c34)C[C@H]2N(C)C1
REMARK SMILES IDX 2 1 1 2 5 3 7 4 6 5 8 7 24 8 9 9 22 10 10 11 21 12 11 13
REMARK SMILES IDX 20 14 19 15 12 16 18 17 15 18 13 19 17 20 16 21 14 22 23 23
REMARK SMILES IDX 3 25 4 26
REMARK H PARENT 5 6 16 24 4 27
ROOT
ATOM      1  C   UNL     1      -9.786 -20.901  24.691  1.00  0.00     0.104 C 
ATOM      2  C   UNL     1     -10.852 -20.226  25.554  1.00  0.00     0.033 C 
ENDROOT
BRANCH   1   3
ATOM      3  N   UNL     1      -8.915 -19.885  24.102  1.00  0.00    -0.351 N 
ATOM      4  O   UNL     1      -7.830 -18.873  22.442  1.00  0.00    -0.274 OA
ATOM      5  C   UNL     1      -8.823 -19.513  22.785  1.00  0.00     0.228 C 
ATOM      6  H   UNL     1      -8.093 -19.610  24.628  1.00  0.00     0.163 HD
BRANCH   5   7
ATOM      7  C   UNL     1      -9.963 -19.880  21.826  1.00  0.00     0.115 C 
ATOM      8  C   UNL     1      -9.594 -19.453  20.386  1.00  0.00     0.102 C 
ATOM      9  C   UNL     1     -11.243 -19.206  22.265  1.00  0.00    -0.007 C 
ATOM     10  N   UNL     1     -10.698 -19.570  19.412  1.00  0.00    -0.298 NA
ATOM     11  C   UNL     1     -12.093 -18.673  21.369  1.00  0.00    -0.026 C 
ATOM     12  C   UNL     1     -11.866 -18.753  19.834  1.00  0.00     0.091 C 
ATOM     13  C   UNL     1     -13.258 -17.862  21.789  1.00  0.00    -0.011 A 
ATOM     14  C   UNL     1     -11.807 -17.329  19.165  1.00  0.00     0.061 C 
ATOM     15  C   UNL     1     -13.577 -16.839  20.880  1.00  0.00     0.010 A 
ATOM     16  C   UNL     1     -14.032 -17.967  22.947  1.00  0.00     0.009 A 
ATOM     17  C   UNL     1     -12.964 -16.510  19.646  1.00  0.00    -0.020 A 
ATOM     18  C   UNL     1     -14.620 -15.959  21.111  1.00  0.00     0.046 A 
ATOM     19  C   UNL     1     -15.090 -17.074  23.171  1.00  0.00     0.003 A 
ATOM     20  C   UNL     1     -13.640 -15.425  19.137  1.00  0.00     0.087 A 
ATOM     21  N   UNL     1     -14.639 -15.100  20.032  1.00  0.00    -0.361 N 
ATOM     22  C   UNL     1     -15.408 -16.050  22.261  1.00  0.00     0.027 A 
ATOM     23  C   UNL     1     -11.079 -20.964  19.187  1.00  0.00     0.106 C 
ATOM     24  H   UNL     1     -15.293 -14.339  19.917  1.00  0.00     0.166 HD
ENDBRANCH   5   7
ENDBRANCH   1   3
BRANCH   1  25
ATOM     25  C   UNL     1      -8.972 -21.920  25.508  1.00  0.00     0.180 C 
BRANCH  25  26
ATOM     26  O   UNL     1      -7.983 -21.260  26.287  1.00  0.00    -0.394 OA
ATOM     27  H   UNL     1      -7.571 -21.933  26.858  1.00  0.00     0.210 HD
ENDBRANCH  25  26
ENDBRANCH   1  25
TORSDOF 4
ENDMDL
MODEL 9
REMARK VINA RESULT:    -8.395      4.587      7.723
REMARK INTER + INTRA:         -10.133
REMARK INTER:                  -9.868
REMARK INTRA:                  -0.265
REMARK UNBOUND:                -0.021
REMARK SMILES C[C@@H](CO)NC(=O)[C@@H]1C=C2c3cccc4[nH]cc(c34)C[C@H]2N(C)C1
REMARK SMILES IDX 2 1 1 2 5 3 7 4 6 5 8 7 24 8 9 9 22 10 10 11 21 12 11 13
REMARK SMILES IDX 20 14 19 15 12 16 18 17 15 18 13 19 17 20 16 21 14 22 23 23
REMARK SMILES IDX 3 25 4 26
REMARK H PARENT 5 6 16 24 4 27
ROOT
ATOM      1  C   UNL     1      -8.897 -19.668  21.198  1.00  0.00     0.104 C 
ATOM      2  C   UNL     1      -9.759 -19.437  22.438  1.00  0.00     0.033 C 
ENDROOT
BRANCH   1   3
ATOM      3  N   UNL     1      -8.583 -18.385  20.571  1.00  0.00    -0.351 N 
ATOM      4  O   UNL     1      -8.581 -16.891  18.920  1.00  0.00    -0.274 OA
ATOM      5  C   UNL     1      -9.178 -17.812  19.477  1.00  0.00     0.228 C 
ATOM      6  H   UNL     1      -7.668 -17.985  20.753  1.00  0.00     0.163 HD
BRANCH   5   7
ATOM      7  C   UNL     1     -10.555 -18.319  19.028  1.00  0.00     0.115 C 
ATOM      8  C   UNL     1     -10.893 -17.748  17.631  1.00  0.00     0.102 C 
ATOM      9  C   UNL     1     -11.607 -17.910  20.033  1.00  0.00    -0.007 C 
ATOM     10  N   UNL     1     -12.278 -18.001  17.185  1.00  0.00    -0.298 NA
ATOM     11  C   UNL     1     -12.822 -17.484  19.639  1.00  0.00    -0.026 C 
ATOM     12  C   UNL     1     -13.257 -17.431  18.148  1.00  0.00     0.091 C 
ATOM     13  C   UNL     1     -13.797 -16.919  20.599  1.00  0.00    -0.011 A 
ATOM     14  C   UNL     1     -13.682 -15.983  17.703  1.00  0.00     0.061 C 
ATOM     15  C   UNL     1     -14.607 -15.918  20.039  1.00  0.00     0.010 A 
ATOM     16  C   UNL     1     -13.985 -17.229  21.947  1.00  0.00     0.009 A 
ATOM     17  C   UNL     1     -14.627 -15.413  18.715  1.00  0.00    -0.020 A 
ATOM     18  C   UNL     1     -15.564 -15.253  20.785  1.00  0.00     0.046 A 
ATOM     19  C   UNL     1     -14.960 -16.554  22.696  1.00  0.00     0.003 A 
ATOM     20  C   UNL     1     -15.596 -14.437  18.670  1.00  0.00     0.087 A 
ATOM     21  N   UNL     1     -16.155 -14.349  19.928  1.00  0.00    -0.361 N 
ATOM     22  C   UNL     1     -15.770 -15.551  22.135  1.00  0.00     0.027 A 
ATOM     23  C   UNL     1     -12.524 -19.425  16.958  1.00  0.00     0.106 C 
ATOM     24  H   UNL     1     -16.893 -13.710  20.189  1.00  0.00     0.166 HD
ENDBRANCH   5   7
ENDBRANCH   1   3
BRANCH   1  25
ATOM     25  C   UNL     1      -7.612 -20.440  21.549  1.00  0.00     0.180 C 
BRANCH  25  26
ATOM     26  O   UNL     1      -6.550 -20.063  20.682  1.00  0.00    -0.394 OA
ATOM     27  H   UNL     1      -6.448 -19.098  20.756  1.00  0.00     0.210 HD
ENDBRANCH  25  26
ENDBRANCH   1  25
TORSDOF 4
ENDMDL
MODEL 10
REMARK VINA RESULT:    -8.276      4.579      7.868
REMARK INTER + INTRA:          -9.990
REMARK INTER:                  -9.506
REMARK INTRA:                  -0.484
REMARK UNBOUND:                -0.021
REMARK SMILES C[C@@H](CO)NC(=O)[C@@H]1C=C2c3cccc4[nH]cc(c34)C[C@H]2N(C)C1
REMARK SMILES IDX 2 1 1 2 5 3 7 4 6 5 8 7 24 8 9 9 22 10 10 11 21 12 11 13
REMARK SMILES IDX 20 14 19 15 12 16 18 17 15 18 13 19 17 20 16 21 14 22 23 23
REMARK SMILES IDX 3 25 4 26
REMARK H PARENT 5 6 16 24 4 27
ROOT
ATOM      1  C   UNL     1     -13.090 -16.237  15.734  1.00  0.00     0.104 C 
ATOM      2  C   UNL     1     -14.113 -15.131  15.476  1.00  0.00     0.033 C 
ENDROOT
BRANCH   1   3
ATOM      3  N   UNL     1     -13.762 -17.407  16.295  1.00  0.00    -0.351 N 
ATOM      4  O   UNL     1     -13.866 -19.349  17.380  1.00  0.00    -0.274 OA
ATOM      5  C   UNL     1     -13.302 -18.262  17.263  1.00  0.00     0.228 C 
ATOM      6  H   UNL     1     -14.510 -17.825  15.751  1.00  0.00     0.163 HD
BRANCH   5   7
ATOM      7  C   UNL     1     -12.142 -17.812  18.163  1.00  0.00     0.115 C 
ATOM      8  C   UNL     1     -11.042 -18.899  18.182  1.00  0.00     0.102 C 
ATOM      9  C   UNL     1     -12.648 -17.549  19.562  1.00  0.00    -0.007 C 
ATOM     10  N   UNL     1      -9.972 -18.669  19.173  1.00  0.00    -0.298 NA
ATOM     11  C   UNL     1     -11.935 -17.916  20.643  1.00  0.00    -0.026 C 
ATOM     12  C   UNL     1     -10.532 -18.577  20.546  1.00  0.00     0.091 C 
ATOM     13  C   UNL     1     -12.492 -17.822  22.011  1.00  0.00    -0.011 A 
ATOM     14  C   UNL     1     -10.487 -19.984  21.250  1.00  0.00     0.061 C 
ATOM     15  C   UNL     1     -12.024 -18.831  22.869  1.00  0.00     0.010 A 
ATOM     16  C   UNL     1     -13.410 -16.905  22.526  1.00  0.00     0.009 A 
ATOM     17  C   UNL     1     -11.103 -19.876  22.610  1.00  0.00    -0.020 A 
ATOM     18  C   UNL     1     -12.450 -18.926  24.182  1.00  0.00     0.046 A 
ATOM     19  C   UNL     1     -13.834 -17.005  23.860  1.00  0.00     0.003 A 
ATOM     20  C   UNL     1     -10.980 -20.602  23.772  1.00  0.00     0.087 A 
ATOM     21  N   UNL     1     -11.800 -20.019  24.715  1.00  0.00    -0.361 N 
ATOM     22  C   UNL     1     -13.365 -18.016  24.717  1.00  0.00     0.027 A 
ATOM     23  C   UNL     1      -9.173 -17.488  18.845  1.00  0.00     0.106 C 
ATOM     24  H   UNL     1     -11.913 -20.346  25.665  1.00  0.00     0.166 HD
ENDBRANCH   5   7
ENDBRANCH   1   3
BRANCH   1  25
ATOM     25  C   UNL     1     -12.328 -16.601  14.447  1.00  0.00     0.180 C 
BRANCH  25  26
ATOM     26  O   UNL     1     -10.973 -16.916  14.740  1.00  0.00    -0.394 OA
ATOM     27  H   UNL     1     -10.624 -16.192  15.290  1.00  0.00     0.210 HD
ENDBRANCH  25  26
ENDBRANCH   1  25
TORSDOF 4
ENDMDL
MODEL 11
REMARK VINA RESULT:    -8.205      2.606      6.695
REMARK INTER + INTRA:          -9.905
REMARK INTER:                  -9.492
REMARK INTRA:                  -0.413
REMARK UNBOUND:                -0.021
REMARK SMILES C[C@@H](CO)NC(=O)[C@@H]1C=C2c3cccc4[nH]cc(c34)C[C@H]2N(C)C1
REMARK SMILES IDX 2 1 1 2 5 3 7 4 6 5 8 7 24 8 9 9 22 10 10 11 21 12 11 13
REMARK SMILES IDX 20 14 19 15 12 16 18 17 15 18 13 19 17 20 16 21 14 22 23 23
REMARK SMILES IDX 3 25 4 26
REMARK H PARENT 5 6 16 24 4 27
ROOT
ATOM      1  C   UNL     1      -7.652 -18.084  20.734  1.00  0.00     0.104 C 
ATOM      2  C   UNL     1      -7.336 -17.108  19.601  1.00  0.00     0.033 C 
ENDROOT
BRANCH   1   3
ATOM      3  N   UNL     1      -8.847 -18.856  20.399  1.00  0.00    -0.351 N 
ATOM      4  O   UNL     1     -10.355 -20.470  20.686  1.00  0.00    -0.274 OA
ATOM      5  C   UNL     1      -9.580 -19.676  21.218  1.00  0.00     0.228 C 
ATOM      6  H   UNL     1      -9.017 -19.057  19.419  1.00  0.00     0.163 HD
BRANCH   5   7
ATOM      7  C   UNL     1      -9.422 -19.541  22.739  1.00  0.00     0.115 C 
ATOM      8  C   UNL     1      -9.053 -20.912  23.351  1.00  0.00     0.102 C 
ATOM      9  C   UNL     1     -10.705 -19.021  23.346  1.00  0.00    -0.007 C 
ATOM     10  N   UNL     1      -9.077 -20.950  24.827  1.00  0.00    -0.298 NA
ATOM     11  C   UNL     1     -11.173 -19.505  24.511  1.00  0.00    -0.026 C 
ATOM     12  C   UNL     1     -10.419 -20.578  25.346  1.00  0.00     0.091 C 
ATOM     13  C   UNL     1     -12.509 -19.132  25.028  1.00  0.00    -0.011 A 
ATOM     14  C   UNL     1     -11.290 -21.867  25.584  1.00  0.00     0.061 C 
ATOM     15  C   UNL     1     -13.131 -20.165  25.750  1.00  0.00     0.010 A 
ATOM     16  C   UNL     1     -13.211 -17.936  24.870  1.00  0.00     0.009 A 
ATOM     17  C   UNL     1     -12.652 -21.463  26.055  1.00  0.00    -0.020 A 
ATOM     18  C   UNL     1     -14.395 -20.016  26.291  1.00  0.00     0.046 A 
ATOM     19  C   UNL     1     -14.491 -17.791  25.426  1.00  0.00     0.003 A 
ATOM     20  C   UNL     1     -13.636 -22.095  26.779  1.00  0.00     0.087 A 
ATOM     21  N   UNL     1     -14.686 -21.211  26.914  1.00  0.00    -0.361 N 
ATOM     22  C   UNL     1     -15.113 -18.825  26.147  1.00  0.00     0.027 A 
ATOM     23  C   UNL     1      -8.031 -20.108  25.409  1.00  0.00     0.106 C 
ATOM     24  H   UNL     1     -15.550 -21.409  27.400  1.00  0.00     0.166 HD
ENDBRANCH   5   7
ENDBRANCH   1   3
BRANCH   1  25
ATOM     25  C   UNL     1      -6.457 -19.012  21.018  1.00  0.00     0.180 C 
BRANCH  25  26
ATOM     26  O   UNL     1      -5.985 -18.827  22.346  1.00  0.00    -0.394 OA
ATOM     27  H   UNL     1      -6.765 -18.663  22.907  1.00  0.00     0.210 HD
ENDBRANCH  25  26
ENDBRANCH   1  25
TORSDOF 4
ENDMDL
MODEL 12
REMARK VINA RESULT:    -8.188      3.296      6.405
REMARK INTER + INTRA:          -9.884
REMARK INTER:                  -9.389
REMARK INTRA:                  -0.496
REMARK UNBOUND:                -0.021
REMARK SMILES C[C@@H](CO)NC(=O)[C@@H]1C=C2c3cccc4[nH]cc(c34)C[C@H]2N(C)C1
REMARK SMILES IDX 2 1 1 2 5 3 7 4 6 5 8 7 24 8 9 9 22 10 10 11 21 12 11 13
REMARK SMILES IDX 20 14 19 15 12 16 18 17 15 18 13 19 17 20 16 21 14 22 23 23
REMARK SMILES IDX 3 25 4 26
REMARK H PARENT 5 6 16 24 4 27
ROOT
ATOM      1  C   UNL     1     -12.377 -18.357  18.317  1.00  0.00     0.104 C 
ATOM      2  C   UNL     1     -13.807 -17.944  18.666  1.00  0.00     0.033 C 
ENDROOT
BRANCH   1   3
ATOM      3  N   UNL     1     -12.156 -19.747  18.715  1.00  0.00    -0.351 N 
ATOM      4  O   UNL     1     -10.928 -21.502  19.321  1.00  0.00    -0.274 OA
ATOM      5  C   UNL     1     -11.063 -20.279  19.348  1.00  0.00     0.228 C 
ATOM      6  H   UNL     1     -12.705 -20.461  18.249  1.00  0.00     0.163 HD
BRANCH   5   7
ATOM      7  C   UNL     1     -10.094 -19.339  20.078  1.00  0.00     0.115 C 
ATOM      8  C   UNL     1      -8.650 -19.879  19.958  1.00  0.00     0.102 C 
ATOM      9  C   UNL     1     -10.492 -19.216  21.531  1.00  0.00    -0.007 C 
ATOM     10  N   UNL     1      -7.660 -19.170  20.793  1.00  0.00    -0.298 NA
ATOM     11  C   UNL     1      -9.568 -19.190  22.509  1.00  0.00    -0.026 C 
ATOM     12  C   UNL     1      -8.039 -19.226  22.229  1.00  0.00     0.091 C 
ATOM     13  C   UNL     1      -9.945 -19.243  23.938  1.00  0.00    -0.011 A 
ATOM     14  C   UNL     1      -7.334 -20.444  22.933  1.00  0.00     0.061 C 
ATOM     15  C   UNL     1      -9.004 -19.917  24.735  1.00  0.00     0.010 A 
ATOM     16  C   UNL     1     -11.091 -18.750  24.565  1.00  0.00     0.009 A 
ATOM     17  C   UNL     1      -7.772 -20.510  24.362  1.00  0.00    -0.020 A 
ATOM     18  C   UNL     1      -9.192 -20.092  26.094  1.00  0.00     0.046 A 
ATOM     19  C   UNL     1     -11.273 -18.927  25.945  1.00  0.00     0.003 A 
ATOM     20  C   UNL     1      -7.223 -21.047  25.504  1.00  0.00     0.087 A 
ATOM     21  N   UNL     1      -8.091 -20.789  26.544  1.00  0.00    -0.361 N 
ATOM     22  C   UNL     1     -10.330 -19.602  26.740  1.00  0.00     0.027 A 
ATOM     23  C   UNL     1      -7.465 -17.790  20.349  1.00  0.00     0.106 C 
ATOM     24  H   UNL     1      -7.944 -21.071  27.504  1.00  0.00     0.166 HD
ENDBRANCH   5   7
ENDBRANCH   1   3
BRANCH   1  25
ATOM     25  C   UNL     1     -12.092 -18.160  16.817  1.00  0.00     0.180 C 
BRANCH  25  26
ATOM     26  O   UNL     1     -10.695 -18.026  16.588  1.00  0.00    -0.394 OA
ATOM     27  H   UNL     1     -10.451 -17.116  16.832  1.00  0.00     0.210 HD
ENDBRANCH  25  26
ENDBRANCH   1  25
TORSDOF 4
ENDMDL
MODEL 13
REMARK VINA RESULT:    -8.169      5.476      7.783
REMARK INTER + INTRA:          -9.861
REMARK INTER:                  -9.357
REMARK INTRA:                  -0.504
REMARK UNBOUND:                -0.021
REMARK SMILES C[C@@H](CO)NC(=O)[C@@H]1C=C2c3cccc4[nH]cc(c34)C[C@H]2N(C)C1
REMARK SMILES IDX 2 1 1 2 5 3 7 4 6 5 8 7 24 8 9 9 22 10 10 11 21 12 11 13
REMARK SMILES IDX 20 14 19 15 12 16 18 17 15 18 13 19 17 20 16 21 14 22 23 23
REMARK SMILES IDX 3 25 4 26
REMARK H PARENT 5 6 16 24 4 27
ROOT
ATOM      1  C   UNL     1     -10.169 -19.624  21.617  1.00  0.00     0.104 C 
ATOM      2  C   UNL     1      -8.735 -20.033  21.280  1.00  0.00     0.033 C 
ENDROOT
BRANCH   1   3
ATOM      3  N   UNL     1     -11.018 -19.792  20.439  1.00  0.00    -0.351 N 
ATOM      4  O   UNL     1     -12.916 -19.655  19.283  1.00  0.00    -0.274 OA
ATOM      5  C   UNL     1     -12.204 -19.163  20.157  1.00  0.00     0.228 C 
ATOM      6  H   UNL     1     -10.906 -20.641  19.896  1.00  0.00     0.163 HD
BRANCH   5   7
ATOM      7  C   UNL     1     -12.562 -17.877  20.913  1.00  0.00     0.115 C 
ATOM      8  C   UNL     1     -13.749 -18.144  21.869  1.00  0.00     0.102 C 
ATOM      9  C   UNL     1     -12.912 -16.783  19.932  1.00  0.00    -0.007 C 
ATOM     10  N   UNL     1     -14.314 -16.933  22.497  1.00  0.00    -0.298 NA
ATOM     11  C   UNL     1     -13.930 -15.934  20.165  1.00  0.00    -0.026 C 
ATOM     12  C   UNL     1     -14.780 -15.969  21.466  1.00  0.00     0.091 C 
ATOM     13  C   UNL     1     -14.392 -14.973  19.139  1.00  0.00    -0.011 A 
ATOM     14  C   UNL     1     -16.311 -16.182  21.171  1.00  0.00     0.061 C 
ATOM     15  C   UNL     1     -15.774 -14.723  19.197  1.00  0.00     0.010 A 
ATOM     16  C   UNL     1     -13.657 -14.329  18.142  1.00  0.00     0.009 A 
ATOM     17  C   UNL     1     -16.743 -15.237  20.094  1.00  0.00    -0.020 A 
ATOM     18  C   UNL     1     -16.398 -13.871  18.304  1.00  0.00     0.046 A 
ATOM     19  C   UNL     1     -14.297 -13.462  17.242  1.00  0.00     0.003 A 
ATOM     20  C   UNL     1     -17.954 -14.693  19.733  1.00  0.00     0.087 A 
ATOM     21  N   UNL     1     -17.733 -13.869  18.648  1.00  0.00    -0.361 N 
ATOM     22  C   UNL     1     -15.679 -13.214  17.301  1.00  0.00     0.027 A 
ATOM     23  C   UNL     1     -13.365 -16.307  23.418  1.00  0.00     0.106 C 
ATOM     24  H   UNL     1     -18.448 -13.339  18.170  1.00  0.00     0.166 HD
ENDBRANCH   5   7
ENDBRANCH   1   3
BRANCH   1  25
ATOM     25  C   UNL     1     -10.711 -20.433  22.809  1.00  0.00     0.180 C 
BRANCH  25  26
ATOM     26  O   UNL     1     -11.233 -19.564  23.806  1.00  0.00    -0.394 OA
ATOM     27  H   UNL     1     -11.314 -18.681  23.403  1.00  0.00     0.210 HD
ENDBRANCH  25  26
ENDBRANCH   1  25
TORSDOF 4
ENDMDL
MODEL 14
REMARK VINA RESULT:    -8.147      4.422      7.368
REMARK INTER + INTRA:          -9.835
REMARK INTER:                  -9.433
REMARK INTRA:                  -0.402
REMARK UNBOUND:                -0.021
REMARK SMILES C[C@@H](CO)NC(=O)[C@@H]1C=C2c3cccc4[nH]cc(c34)C[C@H]2N(C)C1
REMARK SMILES IDX 2 1 1 2 5 3 7 4 6 5 8 7 24 8 9 9 22 10 10 11 21 12 11 13
REMARK SMILES IDX 20 14 19 15 12 16 18 17 15 18 13 19 17 20 16 21 14 22 23 23
REMARK SMILES IDX 3 25 4 26
REMARK H PARENT 5 6 16 24 4 27
ROOT
ATOM      1  C   UNL     1     -13.695 -16.196  16.248  1.00  0.00     0.104 C 
ATOM      2  C   UNL     1     -12.714 -15.624  15.225  1.00  0.00     0.033 C 
ENDROOT
BRANCH   1   3
ATOM      3  N   UNL     1     -13.404 -15.645  17.570  1.00  0.00    -0.351 N 
ATOM      4  O   UNL     1     -12.991 -15.753  19.756  1.00  0.00    -0.274 OA
ATOM      5  C   UNL     1     -12.875 -16.294  18.656  1.00  0.00     0.228 C 
ATOM      6  H   UNL     1     -13.881 -14.791  17.839  1.00  0.00     0.163 HD
BRANCH   5   7
ATOM      7  C   UNL     1     -12.147 -17.628  18.445  1.00  0.00     0.115 C 
ATOM      8  C   UNL     1     -12.910 -18.762  19.169  1.00  0.00     0.102 C 
ATOM      9  C   UNL     1     -10.731 -17.530  18.964  1.00  0.00    -0.007 C 
ATOM     10  N   UNL     1     -12.194 -20.053  19.208  1.00  0.00    -0.298 NA
ATOM     11  C   UNL     1     -10.160 -18.549  19.633  1.00  0.00    -0.026 C 
ATOM     12  C   UNL     1     -10.874 -19.908  19.875  1.00  0.00     0.091 C 
ATOM     13  C   UNL     1      -8.844 -18.404  20.295  1.00  0.00    -0.011 A 
ATOM     14  C   UNL     1     -10.993 -20.255  21.405  1.00  0.00     0.061 C 
ATOM     15  C   UNL     1      -8.727 -19.171  21.466  1.00  0.00     0.010 A 
ATOM     16  C   UNL     1      -7.756 -17.611  19.926  1.00  0.00     0.009 A 
ATOM     17  C   UNL     1      -9.664 -20.051  22.062  1.00  0.00    -0.020 A 
ATOM     18  C   UNL     1      -7.579 -19.150  22.238  1.00  0.00     0.046 A 
ATOM     19  C   UNL     1      -6.594 -17.598  20.712  1.00  0.00     0.003 A 
ATOM     20  C   UNL     1      -9.076 -20.554  23.200  1.00  0.00     0.087 A 
ATOM     21  N   UNL     1      -7.816 -20.002  23.296  1.00  0.00    -0.361 N 
ATOM     22  C   UNL     1      -6.479 -18.365  21.885  1.00  0.00     0.027 A 
ATOM     23  C   UNL     1     -12.054 -20.637  17.874  1.00  0.00     0.106 C 
ATOM     24  H   UNL     1      -7.156 -20.191  24.038  1.00  0.00     0.166 HD
ENDBRANCH   5   7
ENDBRANCH   1   3
BRANCH   1  25
ATOM     25  C   UNL     1     -15.152 -15.912  15.840  1.00  0.00     0.180 C 
BRANCH  25  26
ATOM     26  O   UNL     1     -15.214 -14.809  14.945  1.00  0.00    -0.394 OA
ATOM     27  H   UNL     1     -15.086 -15.161  14.046  1.00  0.00     0.210 HD
ENDBRANCH  25  26
ENDBRANCH   1  25
TORSDOF 4
ENDMDL
MODEL 15
REMARK VINA RESULT:    -8.097      6.323      8.950
REMARK INTER + INTRA:          -9.775
REMARK INTER:                  -9.331
REMARK INTRA:                  -0.444
REMARK UNBOUND:                -0.021
REMARK SMILES C[C@@H](CO)NC(=O)[C@@H]1C=C2c3cccc4[nH]cc(c34)C[C@H]2N(C)C1
REMARK SMILES IDX 2 1 1 2 5 3 7 4 6 5 8 7 24 8 9 9 22 10 10 11 21 12 11 13
REMARK SMILES IDX 20 14 19 15 12 16 18 17 15 18 13 19 17 20 16 21 14 22 23 23
REMARK SMILES IDX 3 25 4 26
REMARK H PARENT 5 6 16 24 4 27
ROOT
ATOM      1  C   UNL     1     -16.487 -14.486  15.507  1.00  0.00     0.104 C 
ATOM      2  C   UNL     1     -16.442 -14.788  14.010  1.00  0.00     0.033 C 
ENDROOT
BRANCH   1   3
ATOM      3  N   UNL     1     -15.171 -14.037  15.959  1.00  0.00    -0.351 N 
ATOM      4  O   UNL     1     -13.626 -13.515  17.475  1.00  0.00    -0.274 OA
ATOM      5  C   UNL     1     -14.591 -14.222  17.187  1.00  0.00     0.228 C 
ATOM      6  H   UNL     1     -14.735 -13.276  15.449  1.00  0.00     0.163 HD
BRANCH   5   7
ATOM      7  C   UNL     1     -15.147 -15.311  18.116  1.00  0.00     0.115 C 
ATOM      8  C   UNL     1     -15.070 -14.834  19.585  1.00  0.00     0.102 C 
ATOM      9  C   UNL     1     -14.365 -16.591  17.935  1.00  0.00    -0.007 C 
ATOM     10  N   UNL     1     -15.386 -15.876  20.583  1.00  0.00    -0.298 NA
ATOM     11  C   UNL     1     -14.035 -17.363  18.987  1.00  0.00    -0.026 C 
ATOM     12  C   UNL     1     -14.472 -17.039  20.443  1.00  0.00     0.091 C 
ATOM     13  C   UNL     1     -13.127 -18.522  18.847  1.00  0.00    -0.011 A 
ATOM     14  C   UNL     1     -13.242 -16.887  21.413  1.00  0.00     0.061 C 
ATOM     15  C   UNL     1     -12.335 -18.746  19.986  1.00  0.00     0.010 A 
ATOM     16  C   UNL     1     -12.947 -19.373  17.754  1.00  0.00     0.009 A 
ATOM     17  C   UNL     1     -12.312 -18.043  21.216  1.00  0.00    -0.020 A 
ATOM     18  C   UNL     1     -11.406 -19.770  20.037  1.00  0.00     0.046 A 
ATOM     19  C   UNL     1     -12.006 -20.411  17.815  1.00  0.00     0.003 A 
ATOM     20  C   UNL     1     -11.360 -18.646  22.006  1.00  0.00     0.087 A 
ATOM     21  N   UNL     1     -10.818 -19.688  21.282  1.00  0.00    -0.361 N 
ATOM     22  C   UNL     1     -11.214 -20.633  18.956  1.00  0.00     0.027 A 
ATOM     23  C   UNL     1     -16.787 -16.290  20.510  1.00  0.00     0.106 C 
ATOM     24  H   UNL     1     -10.091 -20.306  21.614  1.00  0.00     0.166 HD
ENDBRANCH   5   7
ENDBRANCH   1   3
BRANCH   1  25
ATOM     25  C   UNL     1     -17.568 -13.440  15.831  1.00  0.00     0.180 C 
BRANCH  25  26
ATOM     26  O   UNL     1     -17.020 -12.129  15.801  1.00  0.00    -0.394 OA
ATOM     27  H   UNL     1     -17.702 -11.541  15.429  1.00  0.00     0.210 HD
ENDBRANCH  25  26
ENDBRANCH   1  25
TORSDOF 4
ENDMDL
MODEL 16
REMARK VINA RESULT:    -8.069      6.077      8.204
REMARK INTER + INTRA:          -9.741
REMARK INTER:                  -9.405
REMARK INTRA:                  -0.336
REMARK UNBOUND:                -0.021
REMARK SMILES C[C@@H](CO)NC(=O)[C@@H]1C=C2c3cccc4[nH]cc(c34)C[C@H]2N(C)C1
REMARK SMILES IDX 2 1 1 2 5 3 7 4 6 5 8 7 24 8 9 9 22 10 10 11 21 12 11 13
REMARK SMILES IDX 20 14 19 15 12 16 18 17 15 18 13 19 17 20 16 21 14 22 23 23
REMARK SMILES IDX 3 25 4 26
REMARK H PARENT 5 6 16 24 4 27
ROOT
ATOM      1  C   UNL     1     -14.767 -17.753  22.627  1.00  0.00     0.104 C 
ATOM      2  C   UNL     1     -16.075 -18.473  22.955  1.00  0.00     0.033 C 
ENDROOT
BRANCH   1   3
ATOM      3  N   UNL     1     -15.058 -16.430  22.079  1.00  0.00    -0.351 N 
ATOM      4  O   UNL     1     -14.952 -14.806  20.559  1.00  0.00    -0.274 OA
ATOM      5  C   UNL     1     -14.966 -16.018  20.775  1.00  0.00     0.228 C 
ATOM      6  H   UNL     1     -15.055 -15.645  22.721  1.00  0.00     0.163 HD
BRANCH   5   7
ATOM      7  C   UNL     1     -14.920 -17.074  19.662  1.00  0.00     0.115 C 
ATOM      8  C   UNL     1     -13.455 -17.494  19.399  1.00  0.00     0.102 C 
ATOM      9  C   UNL     1     -15.545 -16.522  18.402  1.00  0.00    -0.007 C 
ATOM     10  N   UNL     1     -13.267 -18.352  18.212  1.00  0.00    -0.298 NA
ATOM     11  C   UNL     1     -15.011 -16.770  17.191  1.00  0.00    -0.026 C 
ATOM     12  C   UNL     1     -13.765 -17.676  16.985  1.00  0.00     0.091 C 
ATOM     13  C   UNL     1     -15.508 -16.099  15.970  1.00  0.00    -0.011 A 
ATOM     14  C   UNL     1     -12.589 -16.915  16.266  1.00  0.00     0.061 C 
ATOM     15  C   UNL     1     -14.501 -15.866  15.018  1.00  0.00     0.010 A 
ATOM     16  C   UNL     1     -16.799 -15.660  15.669  1.00  0.00     0.009 A 
ATOM     17  C   UNL     1     -13.125 -16.201  15.065  1.00  0.00    -0.020 A 
ATOM     18  C   UNL     1     -14.766 -15.227  13.819  1.00  0.00     0.046 A 
ATOM     19  C   UNL     1     -17.060 -15.017  14.451  1.00  0.00     0.003 A 
ATOM     20  C   UNL     1     -12.562 -15.755  13.891  1.00  0.00     0.087 A 
ATOM     21  N   UNL     1     -13.564 -15.167  13.147  1.00  0.00    -0.361 N 
ATOM     22  C   UNL     1     -16.051 -14.784  13.499  1.00  0.00     0.027 A 
ATOM     23  C   UNL     1     -13.893 -19.663  18.385  1.00  0.00     0.106 C 
ATOM     24  H   UNL     1     -13.437 -14.747  12.236  1.00  0.00     0.166 HD
ENDBRANCH   5   7
ENDBRANCH   1   3
BRANCH   1  25
ATOM     25  C   UNL     1     -13.863 -17.651  23.869  1.00  0.00     0.180 C 
BRANCH  25  26
ATOM     26  O   UNL     1     -13.688 -16.292  24.248  1.00  0.00    -0.394 OA
ATOM     27  H   UNL     1     -13.570 -16.276  25.215  1.00  0.00     0.210 HD
ENDBRANCH  25  26
ENDBRANCH   1  25
TORSDOF 4
ENDMDL
MODEL 17
REMARK VINA RESULT:    -8.050      8.385     11.268
REMARK INTER + INTRA:          -9.718
REMARK INTER:                 -10.227
REMARK INTRA:                   0.509
REMARK UNBOUND:                -0.021
REMARK SMILES C[C@@H](CO)NC(=O)[C@@H]1C=C2c3cccc4[nH]cc(c34)C[C@H]2N(C)C1
REMARK SMILES IDX 2 1 1 2 5 3 7 4 6 5 8 7 24 8 9 9 22 10 10 11 21 12 11 13
REMARK SMILES IDX 20 14 19 15 12 16 18 17 15 18 13 19 17 20 16 21 14 22 23 23
REMARK SMILES IDX 3 25 4 26
REMARK H PARENT 5 6 16 24 4 27
ROOT
ATOM      1  C   UNL     1     -18.626 -13.784  13.169  1.00  0.00     0.104 C 
ATOM      2  C   UNL     1     -18.576 -12.405  13.827  1.00  0.00     0.033 C 
ENDROOT
BRANCH   1   3
ATOM      3  N   UNL     1     -17.267 -14.245  12.890  1.00  0.00    -0.351 N 
ATOM      4  O   UNL     1     -15.159 -14.743  13.403  1.00  0.00    -0.274 OA
ATOM      5  C   UNL     1     -16.329 -14.694  13.782  1.00  0.00     0.228 C 
ATOM      6  H   UNL     1     -16.845 -13.958  12.013  1.00  0.00     0.163 HD
BRANCH   5   7
ATOM      7  C   UNL     1     -16.782 -15.138  15.179  1.00  0.00     0.115 C 
ATOM      8  C   UNL     1     -16.676 -13.952  16.166  1.00  0.00     0.102 C 
ATOM      9  C   UNL     1     -15.933 -16.295  15.653  1.00  0.00    -0.007 C 
ATOM     10  N   UNL     1     -16.890 -14.313  17.582  1.00  0.00    -0.298 NA
ATOM     11  C   UNL     1     -15.517 -16.380  16.930  1.00  0.00    -0.026 C 
ATOM     12  C   UNL     1     -15.914 -15.345  18.019  1.00  0.00     0.091 C 
ATOM     13  C   UNL     1     -14.547 -17.409  17.366  1.00  0.00    -0.011 A 
ATOM     14  C   UNL     1     -14.658 -14.664  18.680  1.00  0.00     0.061 C 
ATOM     15  C   UNL     1     -13.699 -16.970  18.396  1.00  0.00     0.010 A 
ATOM     16  C   UNL     1     -14.361 -18.705  16.880  1.00  0.00     0.009 A 
ATOM     17  C   UNL     1     -13.670 -15.720  19.064  1.00  0.00    -0.020 A 
ATOM     18  C   UNL     1     -12.710 -17.782  18.921  1.00  0.00     0.046 A 
ATOM     19  C   UNL     1     -13.358 -19.523  17.420  1.00  0.00     0.003 A 
ATOM     20  C   UNL     1     -12.654 -15.783  19.990  1.00  0.00     0.087 A 
ATOM     21  N   UNL     1     -12.080 -17.034  19.893  1.00  0.00    -0.361 N 
ATOM     22  C   UNL     1     -12.510 -19.082  18.450  1.00  0.00     0.027 A 
ATOM     23  C   UNL     1     -18.266 -14.744  17.830  1.00  0.00     0.106 C 
ATOM     24  H   UNL     1     -11.304 -17.359  20.454  1.00  0.00     0.166 HD
ENDBRANCH   5   7
ENDBRANCH   1   3
BRANCH   1  25
ATOM     25  C   UNL     1     -19.382 -14.794  14.052  1.00  0.00     0.180 C 
BRANCH  25  26
ATOM     26  O   UNL     1     -20.044 -15.762  13.248  1.00  0.00    -0.394 OA
ATOM     27  H   UNL     1     -20.987 -15.520  13.227  1.00  0.00     0.210 HD
ENDBRANCH  25  26
ENDBRANCH   1  25
TORSDOF 4
ENDMDL
MODEL 18
REMARK VINA RESULT:    -8.042      2.594      3.675
REMARK INTER + INTRA:          -9.708
REMARK INTER:                  -9.308
REMARK INTRA:                  -0.399
REMARK UNBOUND:                -0.021
REMARK SMILES C[C@@H](CO)NC(=O)[C@@H]1C=C2c3cccc4[nH]cc(c34)C[C@H]2N(C)C1
REMARK SMILES IDX 2 1 1 2 5 3 7 4 6 5 8 7 24 8 9 9 22 10 10 11 21 12 11 13
REMARK SMILES IDX 20 14 19 15 12 16 18 17 15 18 13 19 17 20 16 21 14 22 23 23
REMARK SMILES IDX 3 25 4 26
REMARK H PARENT 5 6 16 24 4 27
ROOT
ATOM      1  C   UNL     1     -14.120 -18.988  25.933  1.00  0.00     0.104 C 
ATOM      2  C   UNL     1     -15.467 -19.153  26.637  1.00  0.00     0.033 C 
ENDROOT
BRANCH   1   3
ATOM      3  N   UNL     1     -14.113 -17.741  25.170  1.00  0.00    -0.351 N 
ATOM      4  O   UNL     1     -13.272 -16.251  23.745  1.00  0.00    -0.274 OA
ATOM      5  C   UNL     1     -13.372 -17.437  24.057  1.00  0.00     0.228 C 
ATOM      6  H   UNL     1     -14.456 -16.906  25.632  1.00  0.00     0.163 HD
BRANCH   5   7
ATOM      7  C   UNL     1     -12.739 -18.578  23.249  1.00  0.00     0.115 C 
ATOM      8  C   UNL     1     -11.197 -18.469  23.308  1.00  0.00     0.102 C 
ATOM      9  C   UNL     1     -13.218 -18.522  21.817  1.00  0.00    -0.007 C 
ATOM     10  N   UNL     1     -10.484 -19.391  22.400  1.00  0.00    -0.298 NA
ATOM     11  C   UNL     1     -12.381 -18.763  20.791  1.00  0.00    -0.026 C 
ATOM     12  C   UNL     1     -10.894 -19.168  20.989  1.00  0.00     0.091 C 
ATOM     13  C   UNL     1     -12.790 -18.544  19.386  1.00  0.00    -0.011 A 
ATOM     14  C   UNL     1      -9.905 -18.167  20.285  1.00  0.00     0.061 C 
ATOM     15  C   UNL     1     -11.733 -18.127  18.560  1.00  0.00     0.010 A 
ATOM     16  C   UNL     1     -14.055 -18.670  18.807  1.00  0.00     0.009 A 
ATOM     17  C   UNL     1     -10.369 -17.920  18.883  1.00  0.00    -0.020 A 
ATOM     18  C   UNL     1     -11.923 -17.848  17.218  1.00  0.00     0.046 A 
ATOM     19  C   UNL     1     -14.239 -18.389  17.445  1.00  0.00     0.003 A 
ATOM     20  C   UNL     1      -9.740 -17.509  17.730  1.00  0.00     0.087 A 
ATOM     21  N   UNL     1     -10.690 -17.468  16.730  1.00  0.00    -0.361 N 
ATOM     22  C   UNL     1     -13.179 -17.971  16.621  1.00  0.00     0.027 A 
ATOM     23  C   UNL     1     -10.668 -20.788  22.792  1.00  0.00     0.106 C 
ATOM     24  H   UNL     1     -10.511 -17.197  15.774  1.00  0.00     0.166 HD
ENDBRANCH   5   7
ENDBRANCH   1   3
BRANCH   1  25
ATOM     25  C   UNL     1     -12.957 -19.024  26.942  1.00  0.00     0.180 C 
BRANCH  25  26
ATOM     26  O   UNL     1     -12.800 -20.332  27.476  1.00  0.00    -0.394 OA
ATOM     27  H   UNL     1     -12.283 -20.845  26.830  1.00  0.00     0.210 HD
ENDBRANCH  25  26
ENDBRANCH   1  25
TORSDOF 4
ENDMDL
MODEL 19
REMARK VINA RESULT:    -7.971      4.847      7.759
REMARK INTER + INTRA:          -9.623
REMARK INTER:                  -9.238
REMARK INTRA:                  -0.385
REMARK UNBOUND:                -0.021
REMARK SMILES C[C@@H](CO)NC(=O)[C@@H]1C=C2c3cccc4[nH]cc(c34)C[C@H]2N(C)C1
REMARK SMILES IDX 2 1 1 2 5 3 7 4 6 5 8 7 24 8 9 9 22 10 10 11 21 12 11 13
REMARK SMILES IDX 20 14 19 15 12 16 18 17 15 18 13 19 17 20 16 21 14 22 23 23
REMARK SMILES IDX 3 25 4 26
REMARK H PARENT 5 6 16 24 4 27
ROOT
ATOM      1  C   UNL     1      -9.193 -19.786  21.348  1.00  0.00     0.104 C 
ATOM      2  C   UNL     1      -7.727 -20.205  21.456  1.00  0.00     0.033 C 
ENDROOT
BRANCH   1   3
ATOM      3  N   UNL     1      -9.804 -20.429  20.186  1.00  0.00    -0.351 N 
ATOM      4  O   UNL     1     -11.452 -20.859  18.752  1.00  0.00    -0.274 OA
ATOM      5  C   UNL     1     -10.919 -20.034  19.494  1.00  0.00     0.228 C 
ATOM      6  H   UNL     1      -9.586 -21.406  20.021  1.00  0.00     0.163 HD
BRANCH   5   7
ATOM      7  C   UNL     1     -11.422 -18.592  19.651  1.00  0.00     0.115 C 
ATOM      8  C   UNL     1     -12.856 -18.598  20.230  1.00  0.00     0.102 C 
ATOM      9  C   UNL     1     -11.396 -17.889  18.314  1.00  0.00    -0.007 C 
ATOM     10  N   UNL     1     -13.520 -17.279  20.233  1.00  0.00    -0.298 NA
ATOM     11  C   UNL     1     -12.389 -17.061  17.940  1.00  0.00    -0.026 C 
ATOM     12  C   UNL     1     -13.596 -16.720  18.858  1.00  0.00     0.091 C 
ATOM     13  C   UNL     1     -12.464 -16.503  16.572  1.00  0.00    -0.011 A 
ATOM     14  C   UNL     1     -14.974 -17.092  18.193  1.00  0.00     0.061 C 
ATOM     15  C   UNL     1     -13.781 -16.317  16.121  1.00  0.00     0.010 A 
ATOM     16  C   UNL     1     -11.426 -16.177  15.697  1.00  0.00     0.009 A 
ATOM     17  C   UNL     1     -15.004 -16.563  16.793  1.00  0.00    -0.020 A 
ATOM     18  C   UNL     1     -14.056 -15.827  14.857  1.00  0.00     0.046 A 
ATOM     19  C   UNL     1     -11.712 -15.676  14.418  1.00  0.00     0.003 A 
ATOM     20  C   UNL     1     -16.016 -16.224  15.924  1.00  0.00     0.087 A 
ATOM     21  N   UNL     1     -15.430 -15.781  14.756  1.00  0.00    -0.361 N 
ATOM     22  C   UNL     1     -13.031 -15.491  13.968  1.00  0.00     0.027 A 
ATOM     23  C   UNL     1     -12.867 -16.345  21.150  1.00  0.00     0.106 C 
ATOM     24  H   UNL     1     -15.935 -15.468  13.939  1.00  0.00     0.166 HD
ENDBRANCH   5   7
ENDBRANCH   1   3
BRANCH   1  25
ATOM     25  C   UNL     1      -9.964 -20.126  22.637  1.00  0.00     0.180 C 
BRANCH  25  26
ATOM     26  O   UNL     1      -9.282 -19.618  23.776  1.00  0.00    -0.394 OA
ATOM     27  H   UNL     1      -8.645 -18.954  23.456  1.00  0.00     0.210 HD
ENDBRANCH  25  26
ENDBRANCH   1  25
TORSDOF 4
ENDMDL
MODEL 20
REMARK VINA RESULT:    -7.866      5.855      8.829
REMARK INTER + INTRA:          -9.496
REMARK INTER:                  -9.115
REMARK INTRA:                  -0.381
REMARK UNBOUND:                -0.021
REMARK SMILES C[C@@H](CO)NC(=O)[C@@H]1C=C2c3cccc4[nH]cc(c34)C[C@H]2N(C)C1
REMARK SMILES IDX 2 1 1 2 5 3 7 4 6 5 8 7 24 8 9 9 22 10 10 11 21 12 11 13
REMARK SMILES IDX 20 14 19 15 12 16 18 17 15 18 13 19 17 20 16 21 14 22 23 23
REMARK SMILES IDX 3 25 4 26
REMARK H PARENT 5 6 16 24 4 27
ROOT
ATOM      1  C   UNL     1     -10.068 -17.903  19.474  1.00  0.00     0.104 C 
ATOM      2  C   UNL     1      -8.791 -17.410  18.794  1.00  0.00     0.033 C 
ENDROOT
BRANCH   1   3
ATOM      3  N   UNL     1     -11.166 -17.917  18.509  1.00  0.00    -0.351 N 
ATOM      4  O   UNL     1     -13.297 -18.051  17.877  1.00  0.00    -0.274 OA
ATOM      5  C   UNL     1     -12.498 -17.696  18.744  1.00  0.00     0.228 C 
ATOM      6  H   UNL     1     -11.015 -18.407  17.634  1.00  0.00     0.163 HD
BRANCH   5   7
ATOM      7  C   UNL     1     -12.919 -16.996  20.044  1.00  0.00     0.115 C 
ATOM      8  C   UNL     1     -13.305 -18.052  21.106  1.00  0.00     0.102 C 
ATOM      9  C   UNL     1     -14.081 -16.068  19.776  1.00  0.00    -0.007 C 
ATOM     10  N   UNL     1     -13.922 -17.495  22.327  1.00  0.00    -0.298 NA
ATOM     11  C   UNL     1     -15.104 -15.961  20.644  1.00  0.00    -0.026 C 
ATOM     12  C   UNL     1     -15.149 -16.725  21.997  1.00  0.00     0.091 C 
ATOM     13  C   UNL     1     -16.325 -15.191  20.317  1.00  0.00    -0.011 A 
ATOM     14  C   UNL     1     -16.421 -17.644  22.120  1.00  0.00     0.061 C 
ATOM     15  C   UNL     1     -17.489 -15.729  20.891  1.00  0.00     0.010 A 
ATOM     16  C   UNL     1     -16.461 -14.056  19.516  1.00  0.00     0.009 A 
ATOM     17  C   UNL     1     -17.635 -16.860  21.733  1.00  0.00    -0.020 A 
ATOM     18  C   UNL     1     -18.734 -15.164  20.680  1.00  0.00     0.046 A 
ATOM     19  C   UNL     1     -17.726 -13.485  19.310  1.00  0.00     0.003 A 
ATOM     20  C   UNL     1     -18.976 -16.974  22.023  1.00  0.00     0.087 A 
ATOM     21  N   UNL     1     -19.630 -15.944  21.380  1.00  0.00    -0.361 N 
ATOM     22  C   UNL     1     -18.890 -14.026  19.885  1.00  0.00     0.027 A 
ATOM     23  C   UNL     1     -12.974 -16.684  23.091  1.00  0.00     0.106 C 
ATOM     24  H   UNL     1     -20.627 -15.782  21.413  1.00  0.00     0.166 HD
ENDBRANCH   5   7
ENDBRANCH   1   3
BRANCH   1  25
ATOM     25  C   UNL     1      -9.863 -19.296  20.098  1.00  0.00     0.180 C 
BRANCH  25  26
ATOM     26  O   UNL     1      -8.563 -19.403  20.664  1.00  0.00    -0.394 OA
ATOM     27  H   UNL     1      -8.678 -19.608  21.609  1.00  0.00     0.210 HD
ENDBRANCH  25  26
ENDBRANCH   1  25
TORSDOF 4
ENDMDL
