MODEL 1
REMARK VINA RESULT:    -8.655      0.000      0.000
REMARK INTER + INTRA:         -10.882
REMARK INTER:                 -10.426
REMARK INTRA:                  -0.456
REMARK UNBOUND:                -0.456
REMARK SMILES C[C@@H](CO)NC(=O)[C@@H]1C=C2c3cccc4[nH]cc(c34)C[C@H]2N(C)C1
REMARK SMILES IDX 2 1 1 2 5 3 7 4 6 5 8 7 24 8 9 9 22 10 10 11 21 12 11 13
REMARK SMILES IDX 20 14 19 15 12 16 18 17 15 18 13 19 17 20 16 21 14 22 23 23
REMARK SMILES IDX 3 25 4 26
REMARK H PARENT 5 6 16 24 4 27
ROOT
ATOM      1  C   UNL     1      91.137 120.064 120.303  1.00  0.00     0.104 C 
ATOM      2  C   UNL     1      90.820 121.519 120.649  1.00  0.00     0.033 C 
ENDROOT
BRANCH   1   3
ATOM      3  N   UNL     1      92.586 119.878 120.238  1.00  0.00    -0.351 N 
ATOM      4  O   UNL     1      94.508 119.323 119.262  1.00  0.00    -0.274 OA
ATOM      5  C   UNL     1      93.375 119.782 119.122  1.00  0.00     0.228 C 
ATOM      6  H   UNL     1      93.047 119.499 121.058  1.00  0.00     0.163 HD
BRANCH   5   7
ATOM      7  C   UNL     1      92.824 120.274 117.776  1.00  0.00     0.115 C 
ATOM      8  C   UNL     1      93.243 119.300 116.650  1.00  0.00     0.102 C 
ATOM      9  C   UNL     1      93.339 121.665 117.487  1.00  0.00    -0.007 C 
ATOM     10  N   UNL     1      92.945 119.777 115.285  1.00  0.00    -0.298 NA
ATOM     11  C   UNL     1      93.722 122.025 116.248  1.00  0.00    -0.026 C 
ATOM     12  C   UNL     1      93.615 121.078 115.021  1.00  0.00     0.091 C 
ATOM     13  C   UNL     1      94.387 123.321 115.985  1.00  0.00    -0.011 A 
ATOM     14  C   UNL     1      95.008 120.843 114.327  1.00  0.00     0.061 C 
ATOM     15  C   UNL     1      95.324 123.260 114.940  1.00  0.00     0.010 A 
ATOM     16  C   UNL     1      94.223 124.543 116.639  1.00  0.00     0.009 A 
ATOM     17  C   UNL     1      95.684 122.162 114.119  1.00  0.00    -0.020 A 
ATOM     18  C   UNL     1      96.065 124.365 114.561  1.00  0.00     0.046 A 
ATOM     19  C   UNL     1      94.976 125.660 116.247  1.00  0.00     0.003 A 
ATOM     20  C   UNL     1      96.650 122.611 113.249  1.00  0.00     0.087 A 
ATOM     21  N   UNL     1      96.873 123.944 113.526  1.00  0.00    -0.361 N 
ATOM     22  C   UNL     1      95.914 125.597 115.202  1.00  0.00     0.027 A 
ATOM     23  C   UNL     1      91.506 119.863 115.042  1.00  0.00     0.106 C 
ATOM     24  H   UNL     1      97.537 124.532 113.041  1.00  0.00     0.166 HD
ENDBRANCH   5   7
ENDBRANCH   1   3
BRANCH   1  25
ATOM     25  C   UNL     1      90.502 119.099 121.321  1.00  0.00     0.180 C 
BRANCH  25  26
ATOM     26  O   UNL     1      89.963 117.961 120.661  1.00  0.00    -0.394 OA
ATOM     27  H   UNL     1      90.357 117.175 121.079  1.00  0.00     0.210 HD
ENDBRANCH  25  26
ENDBRANCH   1  25
TORSDOF 4
ENDMDL
MODEL 2
REMARK VINA RESULT:    -8.576      2.355      7.110
REMARK INTER + INTRA:         -10.786
REMARK INTER:                 -10.318
REMARK INTRA:                  -0.468
REMARK UNBOUND:                -0.456
REMARK SMILES C[C@@H](CO)NC(=O)[C@@H]1C=C2c3cccc4[nH]cc(c34)C[C@H]2N(C)C1
REMARK SMILES IDX 2 1 1 2 5 3 7 4 6 5 8 7 24 8 9 9 22 10 10 11 21 12 11 13
REMARK SMILES IDX 20 14 19 15 12 16 18 17 15 18 13 19 17 20 16 21 14 22 23 23
REMARK SMILES IDX 3 25 4 26
REMARK H PARENT 5 6 16 24 4 27
ROOT
ATOM      1  C   UNL     1      94.449 121.880 114.629  1.00  0.00     0.104 C 
ATOM      2  C   UNL     1      94.259 123.397 114.627  1.00  0.00     0.033 C 
ENDROOT
BRANCH   1   3
ATOM      3  N   UNL     1      93.154 121.222 114.794  1.00  0.00    -0.351 N 
ATOM      4  O   UNL     1      91.704 119.831 115.754  1.00  0.00    -0.274 OA
ATOM      5  C   UNL     1      92.670 120.578 115.904  1.00  0.00     0.228 C 
ATOM      6  H   UNL     1      92.656 120.947 113.954  1.00  0.00     0.163 HD
BRANCH   5   7
ATOM      7  C   UNL     1      93.328 120.844 117.265  1.00  0.00     0.115 C 
ATOM      8  C   UNL     1      93.510 119.511 118.028  1.00  0.00     0.102 C 
ATOM      9  C   UNL     1      92.479 121.800 118.070  1.00  0.00    -0.007 C 
ATOM     10  N   UNL     1      93.945 119.663 119.431  1.00  0.00    -0.298 NA
ATOM     11  C   UNL     1      92.296 121.629 119.392  1.00  0.00    -0.026 C 
ATOM     12  C   UNL     1      92.976 120.488 120.199  1.00  0.00     0.091 C 
ATOM     13  C   UNL     1      91.333 122.451 120.158  1.00  0.00    -0.011 A 
ATOM     14  C   UNL     1      91.927 119.564 120.924  1.00  0.00     0.061 C 
ATOM     15  C   UNL     1      90.729 121.754 121.217  1.00  0.00     0.010 A 
ATOM     16  C   UNL     1      90.945 123.776 119.948  1.00  0.00     0.009 A 
ATOM     17  C   UNL     1      90.934 120.419 121.647  1.00  0.00    -0.020 A 
ATOM     18  C   UNL     1      89.782 122.347 122.034  1.00  0.00     0.046 A 
ATOM     19  C   UNL     1      89.987 124.372 120.782  1.00  0.00     0.003 A 
ATOM     20  C   UNL     1      90.101 120.210 122.722  1.00  0.00     0.087 A 
ATOM     21  N   UNL     1      89.409 121.383 122.946  1.00  0.00    -0.361 N 
ATOM     22  C   UNL     1      89.384 123.672 121.842  1.00  0.00     0.027 A 
ATOM     23  C   UNL     1      95.298 120.210 119.524  1.00  0.00     0.106 C 
ATOM     24  H   UNL     1      88.723 121.519 123.675  1.00  0.00     0.166 HD
ENDBRANCH   5   7
ENDBRANCH   1   3
BRANCH   1  25
ATOM     25  C   UNL     1      95.149 121.406 113.342  1.00  0.00     0.180 C 
BRANCH  25  26
ATOM     26  O   UNL     1      95.719 120.118 113.530  1.00  0.00    -0.394 OA
ATOM     27  H   UNL     1      96.127 119.859 112.684  1.00  0.00     0.210 HD
ENDBRANCH  25  26
ENDBRANCH   1  25
TORSDOF 4
ENDMDL
MODEL 3
REMARK VINA RESULT:    -8.360      1.369      1.535
REMARK INTER + INTRA:         -10.527
REMARK INTER:                 -10.041
REMARK INTRA:                  -0.486
REMARK UNBOUND:                -0.456
REMARK SMILES C[C@@H](CO)NC(=O)[C@@H]1C=C2c3cccc4[nH]cc(c34)C[C@H]2N(C)C1
REMARK SMILES IDX 2 1 1 2 5 3 7 4 6 5 8 7 24 8 9 9 22 10 10 11 21 12 11 13
REMARK SMILES IDX 20 14 19 15 12 16 18 17 15 18 13 19 17 20 16 21 14 22 23 23
REMARK SMILES IDX 3 25 4 26
REMARK H PARENT 5 6 16 24 4 27
ROOT
ATOM      1  C   UNL     1      90.498 120.616 121.197  1.00  0.00     0.104 C 
ATOM      2  C   UNL     1      89.690 121.366 122.255  1.00  0.00     0.033 C 
ENDROOT
BRANCH   1   3
ATOM      3  N   UNL     1      91.856 121.154 121.142  1.00  0.00    -0.351 N 
ATOM      4  O   UNL     1      93.900 121.393 120.290  1.00  0.00    -0.274 OA
ATOM      5  C   UNL     1      92.707 121.188 120.067  1.00  0.00     0.228 C 
ATOM      6  H   UNL     1      92.355 121.261 122.018  1.00  0.00     0.163 HD
BRANCH   5   7
ATOM      7  C   UNL     1      92.132 121.004 118.656  1.00  0.00     0.115 C 
ATOM      8  C   UNL     1      92.517 119.609 118.111  1.00  0.00     0.102 C 
ATOM      9  C   UNL     1      92.654 122.089 117.742  1.00  0.00    -0.007 C 
ATOM     10  N   UNL     1      92.194 119.398 116.686  1.00  0.00    -0.298 NA
ATOM     11  C   UNL     1      93.013 121.820 116.473  1.00  0.00    -0.026 C 
ATOM     12  C   UNL     1      92.870 120.411 115.834  1.00  0.00     0.091 C 
ATOM     13  C   UNL     1      93.684 122.830 115.624  1.00  0.00    -0.011 A 
ATOM     14  C   UNL     1      94.246 119.853 115.309  1.00  0.00     0.061 C 
ATOM     15  C   UNL     1      94.597 122.269 114.715  1.00  0.00     0.010 A 
ATOM     16  C   UNL     1      93.546 124.219 115.633  1.00  0.00     0.009 A 
ATOM     17  C   UNL     1      94.929 120.909 114.498  1.00  0.00    -0.020 A 
ATOM     18  C   UNL     1      95.341 123.055 113.853  1.00  0.00     0.046 A 
ATOM     19  C   UNL     1      94.300 125.009 114.752  1.00  0.00     0.003 A 
ATOM     20  C   UNL     1      95.881 120.881 113.505  1.00  0.00     0.087 A 
ATOM     21  N   UNL     1      96.122 122.184 113.123  1.00  0.00    -0.361 N 
ATOM     22  C   UNL     1      95.215 124.446 113.844  1.00  0.00     0.027 A 
ATOM     23  C   UNL     1      90.750 119.386 116.452  1.00  0.00     0.106 C 
ATOM     24  H   UNL     1      96.780 122.465 112.410  1.00  0.00     0.166 HD
ENDBRANCH   5   7
ENDBRANCH   1   3
BRANCH   1  25
ATOM     25  C   UNL     1      90.515 119.102 121.480  1.00  0.00     0.180 C 
BRANCH  25  26
ATOM     26  O   UNL     1      90.242 118.369 120.293  1.00  0.00    -0.394 OA
ATOM     27  H   UNL     1      90.513 118.927 119.543  1.00  0.00     0.210 HD
ENDBRANCH  25  26
ENDBRANCH   1  25
TORSDOF 4
ENDMDL
MODEL 4
REMARK VINA RESULT:    -8.268      2.700      7.138
REMARK INTER + INTRA:         -10.416
REMARK INTER:                  -9.977
REMARK INTRA:                  -0.438
REMARK UNBOUND:                -0.456
REMARK SMILES C[C@@H](CO)NC(=O)[C@@H]1C=C2c3cccc4[nH]cc(c34)C[C@H]2N(C)C1
REMARK SMILES IDX 2 1 1 2 5 3 7 4 6 5 8 7 24 8 9 9 22 10 10 11 21 12 11 13
REMARK SMILES IDX 20 14 19 15 12 16 18 17 15 18 13 19 17 20 16 21 14 22 23 23
REMARK SMILES IDX 3 25 4 26
REMARK H PARENT 5 6 16 24 4 27
ROOT
ATOM      1  C   UNL     1      95.174 123.744 115.474  1.00  0.00     0.104 C 
ATOM      2  C   UNL     1      94.709 125.002 116.207  1.00  0.00     0.033 C 
ENDROOT
BRANCH   1   3
ATOM      3  N   UNL     1      94.014 123.011 114.969  1.00  0.00    -0.351 N 
ATOM      4  O   UNL     1      92.656 121.256 114.791  1.00  0.00    -0.274 OA
ATOM      5  C   UNL     1      93.413 121.906 115.512  1.00  0.00     0.228 C 
ATOM      6  H   UNL     1      93.780 123.122 113.988  1.00  0.00     0.163 HD
BRANCH   5   7
ATOM      7  C   UNL     1      93.684 121.558 116.982  1.00  0.00     0.115 C 
ATOM      8  C   UNL     1      93.468 120.043 117.210  1.00  0.00     0.102 C 
ATOM      9  C   UNL     1      92.770 122.361 117.879  1.00  0.00    -0.007 C 
ATOM     10  N   UNL     1      93.499 119.627 118.627  1.00  0.00    -0.298 NA
ATOM     11  C   UNL     1      92.197 121.812 118.965  1.00  0.00    -0.026 C 
ATOM     12  C   UNL     1      92.466 120.349 119.415  1.00  0.00     0.091 C 
ATOM     13  C   UNL     1      91.170 122.531 119.751  1.00  0.00    -0.011 A 
ATOM     14  C   UNL     1      91.145 119.497 119.492  1.00  0.00     0.061 C 
ATOM     15  C   UNL     1      90.205 121.678 120.312  1.00  0.00     0.010 A 
ATOM     16  C   UNL     1      91.032 123.903 119.973  1.00  0.00     0.009 A 
ATOM     17  C   UNL     1      90.105 120.267 120.244  1.00  0.00    -0.020 A 
ATOM     18  C   UNL     1      89.149 122.167 121.061  1.00  0.00     0.046 A 
ATOM     19  C   UNL     1      89.961 124.390 120.737  1.00  0.00     0.003 A 
ATOM     20  C   UNL     1      88.980 119.909 120.952  1.00  0.00     0.087 A 
ATOM     21  N   UNL     1      88.410 121.066 121.440  1.00  0.00    -0.361 N 
ATOM     22  C   UNL     1      88.996 123.535 121.297  1.00  0.00     0.027 A 
ATOM     23  C   UNL     1      94.829 119.798 119.213  1.00  0.00     0.106 C 
ATOM     24  H   UNL     1      87.568 121.105 121.997  1.00  0.00     0.166 HD
ENDBRANCH   5   7
ENDBRANCH   1   3
BRANCH   1  25
ATOM     25  C   UNL     1      96.147 124.094 114.333  1.00  0.00     0.180 C 
BRANCH  25  26
ATOM     26  O   UNL     1      96.004 125.457 113.955  1.00  0.00    -0.394 OA
ATOM     27  H   UNL     1      95.091 125.719 114.167  1.00  0.00     0.210 HD
ENDBRANCH  25  26
ENDBRANCH   1  25
TORSDOF 4
ENDMDL
MODEL 5
REMARK VINA RESULT:    -8.265      2.313      4.268
REMARK INTER + INTRA:         -10.411
REMARK INTER:                  -9.975
REMARK INTRA:                  -0.436
REMARK UNBOUND:                -0.456
REMARK SMILES C[C@@H](CO)NC(=O)[C@@H]1C=C2c3cccc4[nH]cc(c34)C[C@H]2N(C)C1
REMARK SMILES IDX 2 1 1 2 5 3 7 4 6 5 8 7 24 8 9 9 22 10 10 11 21 12 11 13
REMARK SMILES IDX 20 14 19 15 12 16 18 17 15 18 13 19 17 20 16 21 14 22 23 23
REMARK SMILES IDX 3 25 4 26
REMARK H PARENT 5 6 16 24 4 27
ROOT
ATOM      1  C   UNL     1      89.086 119.248 122.204  1.00  0.00     0.104 C 
ATOM      2  C   UNL     1      88.036 118.139 122.141  1.00  0.00     0.033 C 
ENDROOT
BRANCH   1   3
ATOM      3  N   UNL     1      88.740 120.306 121.256  1.00  0.00    -0.351 N 
ATOM      4  O   UNL     1      89.170 122.004 119.881  1.00  0.00    -0.274 OA
ATOM      5  C   UNL     1      89.565 120.944 120.366  1.00  0.00     0.228 C 
ATOM      6  H   UNL     1      87.898 120.841 121.437  1.00  0.00     0.163 HD
BRANCH   5   7
ATOM      7  C   UNL     1      90.908 120.297 120.000  1.00  0.00     0.115 C 
ATOM      8  C   UNL     1      92.070 121.133 120.588  1.00  0.00     0.102 C 
ATOM      9  C   UNL     1      91.039 120.196 118.498  1.00  0.00    -0.007 C 
ATOM     10  N   UNL     1      93.412 120.723 120.129  1.00  0.00    -0.298 NA
ATOM     11  C   UNL     1      92.208 120.447 117.880  1.00  0.00    -0.026 C 
ATOM     12  C   UNL     1      93.513 120.800 118.648  1.00  0.00     0.091 C 
ATOM     13  C   UNL     1      92.309 120.521 116.406  1.00  0.00    -0.011 A 
ATOM     14  C   UNL     1      94.103 122.192 118.212  1.00  0.00     0.061 C 
ATOM     15  C   UNL     1      93.272 121.443 115.962  1.00  0.00     0.010 A 
ATOM     16  C   UNL     1      91.573 119.834 115.438  1.00  0.00     0.009 A 
ATOM     17  C   UNL     1      94.145 122.264 116.718  1.00  0.00    -0.020 A 
ATOM     18  C   UNL     1      93.496 121.671 114.616  1.00  0.00     0.046 A 
ATOM     19  C   UNL     1      91.809 120.068 114.075  1.00  0.00     0.003 A 
ATOM     20  C   UNL     1      94.891 122.991 115.820  1.00  0.00     0.087 A 
ATOM     21  N   UNL     1      94.489 122.625 114.552  1.00  0.00    -0.361 N 
ATOM     22  C   UNL     1      92.773 120.991 113.633  1.00  0.00     0.027 A 
ATOM     23  C   UNL     1      93.769 119.391 120.617  1.00  0.00     0.106 C 
ATOM     24  H   UNL     1      94.867 123.003 113.694  1.00  0.00     0.166 HD
ENDBRANCH   5   7
ENDBRANCH   1   3
BRANCH   1  25
ATOM     25  C   UNL     1      89.220 119.807 123.632  1.00  0.00     0.180 C 
BRANCH  25  26
ATOM     26  O   UNL     1      88.426 120.976 123.786  1.00  0.00    -0.394 OA
ATOM     27  H   UNL     1      87.575 120.697 124.170  1.00  0.00     0.210 HD
ENDBRANCH  25  26
ENDBRANCH   1  25
TORSDOF 4
ENDMDL
MODEL 6
REMARK VINA RESULT:    -8.001      3.147      6.441
REMARK INTER + INTRA:         -10.093
REMARK INTER:                 -10.207
REMARK INTRA:                   0.114
REMARK UNBOUND:                -0.456
REMARK SMILES C[C@@H](CO)NC(=O)[C@@H]1C=C2c3cccc4[nH]cc(c34)C[C@H]2N(C)C1
REMARK SMILES IDX 2 1 1 2 5 3 7 4 6 5 8 7 24 8 9 9 22 10 10 11 21 12 11 13
REMARK SMILES IDX 20 14 19 15 12 16 18 17 15 18 13 19 17 20 16 21 14 22 23 23
REMARK SMILES IDX 3 25 4 26
REMARK H PARENT 5 6 16 24 4 27
ROOT
ATOM      1  C   UNL     1      95.589 125.232 117.326  1.00  0.00     0.104 C 
ATOM      2  C   UNL     1      94.809 125.109 118.635  1.00  0.00     0.033 C 
ENDROOT
BRANCH   1   3
ATOM      3  N   UNL     1      94.665 125.507 116.227  1.00  0.00    -0.351 N 
ATOM      4  O   UNL     1      93.824 125.242 114.183  1.00  0.00    -0.274 OA
ATOM      5  C   UNL     1      94.382 124.715 115.144  1.00  0.00     0.228 C 
ATOM      6  H   UNL     1      94.405 126.474 116.063  1.00  0.00     0.163 HD
BRANCH   5   7
ATOM      7  C   UNL     1      94.742 123.224 115.198  1.00  0.00     0.115 C 
ATOM      8  C   UNL     1      94.061 122.479 114.026  1.00  0.00     0.102 C 
ATOM      9  C   UNL     1      94.306 122.637 116.521  1.00  0.00    -0.007 C 
ATOM     10  N   UNL     1      94.168 121.007 114.093  1.00  0.00    -0.298 NA
ATOM     11  C   UNL     1      93.755 121.411 116.593  1.00  0.00    -0.026 C 
ATOM     12  C   UNL     1      93.576 120.490 115.354  1.00  0.00     0.091 C 
ATOM     13  C   UNL     1      93.168 120.895 117.849  1.00  0.00    -0.011 A 
ATOM     14  C   UNL     1      92.072 120.084 115.126  1.00  0.00     0.061 C 
ATOM     15  C   UNL     1      92.069 120.045 117.639  1.00  0.00     0.010 A 
ATOM     16  C   UNL     1      93.541 121.159 119.169  1.00  0.00     0.009 A 
ATOM     17  C   UNL     1      91.486 119.616 116.421  1.00  0.00    -0.020 A 
ATOM     18  C   UNL     1      91.371 119.483 118.693  1.00  0.00     0.046 A 
ATOM     19  C   UNL     1      92.831 120.581 120.232  1.00  0.00     0.003 A 
ATOM     20  C   UNL     1      90.430 118.796 116.747  1.00  0.00     0.087 A 
ATOM     21  N   UNL     1      90.370 118.724 118.124  1.00  0.00    -0.361 N 
ATOM     22  C   UNL     1      91.731 119.732 120.019  1.00  0.00     0.027 A 
ATOM     23  C   UNL     1      95.549 120.555 113.930  1.00  0.00     0.106 C 
ATOM     24  H   UNL     1      89.687 118.192 118.646  1.00  0.00     0.166 HD
ENDBRANCH   5   7
ENDBRANCH   1   3
BRANCH   1  25
ATOM     25  C   UNL     1      96.671 126.323 117.424  1.00  0.00     0.180 C 
BRANCH  25  26
ATOM     26  O   UNL     1      96.393 127.385 116.520  1.00  0.00    -0.394 OA
ATOM     27  H   UNL     1      96.296 128.196 117.052  1.00  0.00     0.210 HD
ENDBRANCH  25  26
ENDBRANCH   1  25
TORSDOF 4
ENDMDL
MODEL 7
REMARK VINA RESULT:    -7.853      2.833      7.008
REMARK INTER + INTRA:          -9.915
REMARK INTER:                  -9.797
REMARK INTRA:                  -0.119
REMARK UNBOUND:                -0.456
REMARK SMILES C[C@@H](CO)NC(=O)[C@@H]1C=C2c3cccc4[nH]cc(c34)C[C@H]2N(C)C1
REMARK SMILES IDX 2 1 1 2 5 3 7 4 6 5 8 7 24 8 9 9 22 10 10 11 21 12 11 13
REMARK SMILES IDX 20 14 19 15 12 16 18 17 15 18 13 19 17 20 16 21 14 22 23 23
REMARK SMILES IDX 3 25 4 26
REMARK H PARENT 5 6 16 24 4 27
ROOT
ATOM      1  C   UNL     1      95.420 122.135 114.269  1.00  0.00     0.104 C 
ATOM      2  C   UNL     1      96.756 122.776 113.895  1.00  0.00     0.033 C 
ENDROOT
BRANCH   1   3
ATOM      3  N   UNL     1      94.393 123.170 114.384  1.00  0.00    -0.351 N 
ATOM      4  O   UNL     1      92.542 124.093 115.208  1.00  0.00    -0.274 OA
ATOM      5  C   UNL     1      93.523 123.382 115.422  1.00  0.00     0.228 C 
ATOM      6  H   UNL     1      94.071 123.610 113.529  1.00  0.00     0.163 HD
BRANCH   5   7
ATOM      7  C   UNL     1      93.830 122.758 116.791  1.00  0.00     0.115 C 
ATOM      8  C   UNL     1      93.561 121.236 116.744  1.00  0.00     0.102 C 
ATOM      9  C   UNL     1      92.981 123.411 117.857  1.00  0.00    -0.007 C 
ATOM     10  N   UNL     1      93.624 120.562 118.057  1.00  0.00    -0.298 NA
ATOM     11  C   UNL     1      92.424 122.688 118.846  1.00  0.00    -0.026 C 
ATOM     12  C   UNL     1      92.648 121.159 119.006  1.00  0.00     0.091 C 
ATOM     13  C   UNL     1      91.454 123.283 119.792  1.00  0.00    -0.011 A 
ATOM     14  C   UNL     1      91.297 120.352 118.979  1.00  0.00     0.061 C 
ATOM     15  C   UNL     1      90.475 122.373 120.225  1.00  0.00     0.010 A 
ATOM     16  C   UNL     1      91.379 124.593 120.269  1.00  0.00     0.009 A 
ATOM     17  C   UNL     1      90.316 121.002 119.903  1.00  0.00    -0.020 A 
ATOM     18  C   UNL     1      89.465 122.748 121.095  1.00  0.00     0.046 A 
ATOM     19  C   UNL     1      90.355 124.965 121.153  1.00  0.00     0.003 A 
ATOM     20  C   UNL     1      89.203 120.556 120.577  1.00  0.00     0.087 A 
ATOM     21  N   UNL     1      88.696 121.621 121.294  1.00  0.00    -0.361 N 
ATOM     22  C   UNL     1      89.376 124.053 121.585  1.00  0.00     0.027 A 
ATOM     23  C   UNL     1      94.979 120.577 118.609  1.00  0.00     0.106 C 
ATOM     24  H   UNL     1      87.876 121.584 121.882  1.00  0.00     0.166 HD
ENDBRANCH   5   7
ENDBRANCH   1   3
BRANCH   1  25
ATOM     25  C   UNL     1      95.011 121.064 113.242  1.00  0.00     0.180 C 
BRANCH  25  26
ATOM     26  O   UNL     1      95.850 119.921 113.351  1.00  0.00    -0.394 OA
ATOM     27  H   UNL     1      96.746 120.242 113.557  1.00  0.00     0.210 HD
ENDBRANCH  25  26
ENDBRANCH   1  25
TORSDOF 4
ENDMDL
MODEL 8
REMARK VINA RESULT:    -7.792      3.536      6.493
REMARK INTER + INTRA:          -9.842
REMARK INTER:                  -9.902
REMARK INTRA:                   0.060
REMARK UNBOUND:                -0.456
REMARK SMILES C[C@@H](CO)NC(=O)[C@@H]1C=C2c3cccc4[nH]cc(c34)C[C@H]2N(C)C1
REMARK SMILES IDX 2 1 1 2 5 3 7 4 6 5 8 7 24 8 9 9 22 10 10 11 21 12 11 13
REMARK SMILES IDX 20 14 19 15 12 16 18 17 15 18 13 19 17 20 16 21 14 22 23 23
REMARK SMILES IDX 3 25 4 26
REMARK H PARENT 5 6 16 24 4 27
ROOT
ATOM      1  C   UNL     1      96.087 126.908 118.234  1.00  0.00     0.104 C 
ATOM      2  C   UNL     1      95.200 126.159 119.228  1.00  0.00     0.033 C 
ENDROOT
BRANCH   1   3
ATOM      3  N   UNL     1      95.287 127.341 117.090  1.00  0.00    -0.351 N 
ATOM      4  O   UNL     1      94.785 127.514 114.927  1.00  0.00    -0.274 OA
ATOM      5  C   UNL     1      95.289 126.830 115.818  1.00  0.00     0.228 C 
ATOM      6  H   UNL     1      94.895 128.276 117.118  1.00  0.00     0.163 HD
BRANCH   5   7
ATOM      7  C   UNL     1      95.880 125.435 115.577  1.00  0.00     0.115 C 
ATOM      8  C   UNL     1      95.681 125.029 114.097  1.00  0.00     0.102 C 
ATOM      9  C   UNL     1      95.220 124.430 116.492  1.00  0.00    -0.007 C 
ATOM     10  N   UNL     1      96.026 123.626 113.795  1.00  0.00    -0.298 NA
ATOM     11  C   UNL     1      94.897 123.197 116.059  1.00  0.00    -0.026 C 
ATOM     12  C   UNL     1      95.221 122.691 114.626  1.00  0.00     0.091 C 
ATOM     13  C   UNL     1      94.098 122.266 116.887  1.00  0.00    -0.011 A 
ATOM     14  C   UNL     1      93.930 122.242 113.846  1.00  0.00     0.061 C 
ATOM     15  C   UNL     1      93.265 121.427 116.129  1.00  0.00     0.010 A 
ATOM     16  C   UNL     1      94.053 122.142 118.277  1.00  0.00     0.009 A 
ATOM     17  C   UNL     1      93.113 121.344 114.722  1.00  0.00    -0.020 A 
ATOM     18  C   UNL     1      92.423 120.505 116.725  1.00  0.00     0.046 A 
ATOM     19  C   UNL     1      93.200 121.202 118.874  1.00  0.00     0.003 A 
ATOM     20  C   UNL     1      92.172 120.371 114.476  1.00  0.00     0.087 A 
ATOM     21  N   UNL     1      91.761 119.872 115.695  1.00  0.00    -0.361 N 
ATOM     22  C   UNL     1      92.366 120.363 118.114  1.00  0.00     0.027 A 
ATOM     23  C   UNL     1      97.458 123.374 113.949  1.00  0.00     0.106 C 
ATOM     24  H   UNL     1      91.071 119.144 115.818  1.00  0.00     0.166 HD
ENDBRANCH   5   7
ENDBRANCH   1   3
BRANCH   1  25
ATOM     25  C   UNL     1      96.786 128.105 118.904  1.00  0.00     0.180 C 
BRANCH  25  26
ATOM     26  O   UNL     1      96.666 128.026 120.318  1.00  0.00    -0.394 OA
ATOM     27  H   UNL     1      97.305 128.656 120.696  1.00  0.00     0.210 HD
ENDBRANCH  25  26
ENDBRANCH   1  25
TORSDOF 4
ENDMDL
MODEL 9
REMARK VINA RESULT:    -7.715      3.646      6.509
REMARK INTER + INTRA:          -9.750
REMARK INTER:                  -9.756
REMARK INTRA:                   0.006
REMARK UNBOUND:                -0.456
REMARK SMILES C[C@@H](CO)NC(=O)[C@@H]1C=C2c3cccc4[nH]cc(c34)C[C@H]2N(C)C1
REMARK SMILES IDX 2 1 1 2 5 3 7 4 6 5 8 7 24 8 9 9 22 10 10 11 21 12 11 13
REMARK SMILES IDX 20 14 19 15 12 16 18 17 15 18 13 19 17 20 16 21 14 22 23 23
REMARK SMILES IDX 3 25 4 26
REMARK H PARENT 5 6 16 24 4 27
ROOT
ATOM      1  C   UNL     1      87.756 123.429 123.791  1.00  0.00     0.104 C 
ATOM      2  C   UNL     1      86.755 122.829 124.779  1.00  0.00     0.033 C 
ENDROOT
BRANCH   1   3
ATOM      3  N   UNL     1      87.247 123.290 122.428  1.00  0.00    -0.351 N 
ATOM      4  O   UNL     1      87.413 122.925 120.238  1.00  0.00    -0.274 OA
ATOM      5  C   UNL     1      87.848 122.673 121.361  1.00  0.00     0.228 C 
ATOM      6  H   UNL     1      86.522 123.934 122.130  1.00  0.00     0.163 HD
BRANCH   5   7
ATOM      7  C   UNL     1      88.996 121.688 121.621  1.00  0.00     0.115 C 
ATOM      8  C   UNL     1      90.223 122.449 122.178  1.00  0.00     0.102 C 
ATOM      9  C   UNL     1      89.357 120.970 120.341  1.00  0.00    -0.007 C 
ATOM     10  N   UNL     1      91.454 121.639 122.272  1.00  0.00    -0.298 NA
ATOM     11  C   UNL     1      90.640 120.721 120.018  1.00  0.00    -0.026 C 
ATOM     12  C   UNL     1      91.833 121.093 120.942  1.00  0.00     0.091 C 
ATOM     13  C   UNL     1      91.017 120.176 118.695  1.00  0.00    -0.011 A 
ATOM     14  C   UNL     1      92.860 122.052 120.232  1.00  0.00     0.061 C 
ATOM     15  C   UNL     1      92.264 120.638 118.242  1.00  0.00     0.010 A 
ATOM     16  C   UNL     1      90.301 119.315 117.861  1.00  0.00     0.009 A 
ATOM     17  C   UNL     1      93.185 121.508 118.876  1.00  0.00    -0.020 A 
ATOM     18  C   UNL     1      92.779 120.259 117.014  1.00  0.00     0.046 A 
ATOM     19  C   UNL     1      90.831 118.932 116.620  1.00  0.00     0.003 A 
ATOM     20  C   UNL     1      94.254 121.655 118.022  1.00  0.00     0.087 A 
ATOM     21  N   UNL     1      93.996 120.896 116.899  1.00  0.00    -0.361 N 
ATOM     22  C   UNL     1      92.079 119.395 116.168  1.00  0.00     0.027 A 
ATOM     23  C   UNL     1      91.327 120.573 123.266  1.00  0.00     0.106 C 
ATOM     24  H   UNL     1      94.611 120.817 116.100  1.00  0.00     0.166 HD
ENDBRANCH   5   7
ENDBRANCH   1   3
BRANCH   1  25
ATOM     25  C   UNL     1      88.050 124.903 124.124  1.00  0.00     0.180 C 
BRANCH  25  26
ATOM     26  O   UNL     1      88.513 125.031 125.461  1.00  0.00    -0.394 OA
ATOM     27  H   UNL     1      87.729 125.161 126.025  1.00  0.00     0.210 HD
ENDBRANCH  25  26
ENDBRANCH   1  25
TORSDOF 4
ENDMDL
MODEL 10
REMARK VINA RESULT:    -7.704      4.985      8.020
REMARK INTER + INTRA:          -9.736
REMARK INTER:                  -9.373
REMARK INTRA:                  -0.362
REMARK UNBOUND:                -0.456
REMARK SMILES C[C@@H](CO)NC(=O)[C@@H]1C=C2c3cccc4[nH]cc(c34)C[C@H]2N(C)C1
REMARK SMILES IDX 2 1 1 2 5 3 7 4 6 5 8 7 24 8 9 9 22 10 10 11 21 12 11 13
REMARK SMILES IDX 20 14 19 15 12 16 18 17 15 18 13 19 17 20 16 21 14 22 23 23
REMARK SMILES IDX 3 25 4 26
REMARK H PARENT 5 6 16 24 4 27
ROOT
ATOM      1  C   UNL     1      87.560 127.269 122.799  1.00  0.00     0.104 C 
ATOM      2  C   UNL     1      87.578 127.697 121.332  1.00  0.00     0.033 C 
ENDROOT
BRANCH   1   3
ATOM      3  N   UNL     1      88.917 126.940 123.232  1.00  0.00    -0.351 N 
ATOM      4  O   UNL     1      90.550 125.582 123.901  1.00  0.00    -0.274 OA
ATOM      5  C   UNL     1      89.534 125.716 123.220  1.00  0.00     0.228 C 
ATOM      6  H   UNL     1      89.377 127.585 123.867  1.00  0.00     0.163 HD
BRANCH   5   7
ATOM      7  C   UNL     1      88.952 124.599 122.342  1.00  0.00     0.115 C 
ATOM      8  C   UNL     1      88.557 123.392 123.225  1.00  0.00     0.102 C 
ATOM      9  C   UNL     1      89.965 124.181 121.302  1.00  0.00    -0.007 C 
ATOM     10  N   UNL     1      88.177 122.180 122.471  1.00  0.00    -0.298 NA
ATOM     11  C   UNL     1      90.137 122.888 120.973  1.00  0.00    -0.026 C 
ATOM     12  C   UNL     1      89.285 121.740 121.583  1.00  0.00     0.091 C 
ATOM     13  C   UNL     1      91.238 122.449 120.087  1.00  0.00    -0.011 A 
ATOM     14  C   UNL     1      90.171 120.661 122.310  1.00  0.00     0.061 C 
ATOM     15  C   UNL     1      91.731 121.173 120.407  1.00  0.00     0.010 A 
ATOM     16  C   UNL     1      91.844 123.133 119.031  1.00  0.00     0.009 A 
ATOM     17  C   UNL     1      91.308 120.273 121.416  1.00  0.00    -0.020 A 
ATOM     18  C   UNL     1      92.778 120.600 119.707  1.00  0.00     0.046 A 
ATOM     19  C   UNL     1      92.902 122.544 118.323  1.00  0.00     0.003 A 
ATOM     20  C   UNL     1      92.109 119.159 121.324  1.00  0.00     0.087 A 
ATOM     21  N   UNL     1      92.995 119.368 120.287  1.00  0.00    -0.361 N 
ATOM     22  C   UNL     1      93.394 121.267 118.645  1.00  0.00     0.027 A 
ATOM     23  C   UNL     1      86.939 122.376 121.717  1.00  0.00     0.106 C 
ATOM     24  H   UNL     1      93.706 118.713 119.993  1.00  0.00     0.166 HD
ENDBRANCH   5   7
ENDBRANCH   1   3
BRANCH   1  25
ATOM     25  C   UNL     1      86.946 128.364 123.691  1.00  0.00     0.180 C 
BRANCH  25  26
ATOM     26  O   UNL     1      86.276 129.336 122.898  1.00  0.00    -0.394 OA
ATOM     27  H   UNL     1      85.402 128.969 122.673  1.00  0.00     0.210 HD
ENDBRANCH  25  26
ENDBRANCH   1  25
TORSDOF 4
ENDMDL
MODEL 11
REMARK VINA RESULT:    -7.687      1.953      3.339
REMARK INTER + INTRA:          -9.716
REMARK INTER:                  -9.933
REMARK INTRA:                   0.217
REMARK UNBOUND:                -0.456
REMARK SMILES C[C@@H](CO)NC(=O)[C@@H]1C=C2c3cccc4[nH]cc(c34)C[C@H]2N(C)C1
REMARK SMILES IDX 2 1 1 2 5 3 7 4 6 5 8 7 24 8 9 9 22 10 10 11 21 12 11 13
REMARK SMILES IDX 20 14 19 15 12 16 18 17 15 18 13 19 17 20 16 21 14 22 23 23
REMARK SMILES IDX 3 25 4 26
REMARK H PARENT 5 6 16 24 4 27
ROOT
ATOM      1  C   UNL     1      90.225 119.440 120.514  1.00  0.00     0.104 C 
ATOM      2  C   UNL     1      89.754 118.288 121.401  1.00  0.00     0.033 C 
ENDROOT
BRANCH   1   3
ATOM      3  N   UNL     1      90.094 119.063 119.108  1.00  0.00    -0.351 N 
ATOM      4  O   UNL     1      90.449 119.274 116.920  1.00  0.00    -0.274 OA
ATOM      5  C   UNL     1      90.892 119.435 118.057  1.00  0.00     0.228 C 
ATOM      6  H   UNL     1      89.187 118.735 118.792  1.00  0.00     0.163 HD
BRANCH   5   7
ATOM      7  C   UNL     1      92.291 119.994 118.346  1.00  0.00     0.115 C 
ATOM      8  C   UNL     1      92.172 121.370 119.042  1.00  0.00     0.102 C 
ATOM      9  C   UNL     1      93.072 120.121 117.059  1.00  0.00    -0.007 C 
ATOM     10  N   UNL     1      93.449 122.097 119.185  1.00  0.00    -0.298 NA
ATOM     11  C   UNL     1      93.863 121.183 116.823  1.00  0.00    -0.026 C 
ATOM     12  C   UNL     1      94.082 122.321 117.859  1.00  0.00     0.091 C 
ATOM     13  C   UNL     1      94.495 121.406 115.503  1.00  0.00    -0.011 A 
ATOM     14  C   UNL     1      93.674 123.731 117.290  1.00  0.00     0.061 C 
ATOM     15  C   UNL     1      94.634 122.765 115.178  1.00  0.00     0.010 A 
ATOM     16  C   UNL     1      94.930 120.466 114.566  1.00  0.00     0.009 A 
ATOM     17  C   UNL     1      94.281 123.911 115.934  1.00  0.00    -0.020 A 
ATOM     18  C   UNL     1      95.181 123.174 113.974  1.00  0.00     0.046 A 
ATOM     19  C   UNL     1      95.487 120.888 113.350  1.00  0.00     0.003 A 
ATOM     20  C   UNL     1      94.612 125.010 115.177  1.00  0.00     0.087 A 
ATOM     21  N   UNL     1      95.155 124.553 113.993  1.00  0.00    -0.361 N 
ATOM     22  C   UNL     1      95.624 122.250 113.026  1.00  0.00     0.027 A 
ATOM     23  C   UNL     1      94.364 121.414 120.100  1.00  0.00     0.106 C 
ATOM     24  H   UNL     1      95.486 125.142 113.243  1.00  0.00     0.166 HD
ENDBRANCH   5   7
ENDBRANCH   1   3
BRANCH   1  25
ATOM     25  C   UNL     1      89.442 120.730 120.816  1.00  0.00     0.180 C 
BRANCH  25  26
ATOM     26  O   UNL     1      88.136 120.423 121.288  1.00  0.00    -0.394 OA
ATOM     27  H   UNL     1      87.670 121.269 121.412  1.00  0.00     0.210 HD
ENDBRANCH  25  26
ENDBRANCH   1  25
TORSDOF 4
ENDMDL
MODEL 12
REMARK VINA RESULT:    -7.632      3.182      5.714
REMARK INTER + INTRA:          -9.650
REMARK INTER:                  -9.330
REMARK INTRA:                  -0.319
REMARK UNBOUND:                -0.456
REMARK SMILES C[C@@H](CO)NC(=O)[C@@H]1C=C2c3cccc4[nH]cc(c34)C[C@H]2N(C)C1
REMARK SMILES IDX 2 1 1 2 5 3 7 4 6 5 8 7 24 8 9 9 22 10 10 11 21 12 11 13
REMARK SMILES IDX 20 14 19 15 12 16 18 17 15 18 13 19 17 20 16 21 14 22 23 23
REMARK SMILES IDX 3 25 4 26
REMARK H PARENT 5 6 16 24 4 27
ROOT
ATOM      1  C   UNL     1      87.802 118.472 122.455  1.00  0.00     0.104 C 
ATOM      2  C   UNL     1      88.436 117.495 121.465  1.00  0.00     0.033 C 
ENDROOT
BRANCH   1   3
ATOM      3  N   UNL     1      87.315 119.650 121.739  1.00  0.00    -0.351 N 
ATOM      4  O   UNL     1      87.305 121.800 121.161  1.00  0.00    -0.274 OA
ATOM      5  C   UNL     1      87.976 120.827 121.502  1.00  0.00     0.228 C 
ATOM      6  H   UNL     1      86.311 119.758 121.642  1.00  0.00     0.163 HD
BRANCH   5   7
ATOM      7  C   UNL     1      89.505 120.863 121.640  1.00  0.00     0.115 C 
ATOM      8  C   UNL     1      89.971 122.309 121.930  1.00  0.00     0.102 C 
ATOM      9  C   UNL     1      90.148 120.344 120.375  1.00  0.00    -0.007 C 
ATOM     10  N   UNL     1      91.434 122.502 121.879  1.00  0.00    -0.298 NA
ATOM     11  C   UNL     1      91.250 120.924 119.864  1.00  0.00    -0.026 C 
ATOM     12  C   UNL     1      91.974 122.117 120.548  1.00  0.00     0.091 C 
ATOM     13  C   UNL     1      91.789 120.539 118.540  1.00  0.00    -0.011 A 
ATOM     14  C   UNL     1      92.063 123.378 119.610  1.00  0.00     0.061 C 
ATOM     15  C   UNL     1      92.388 121.609 117.855  1.00  0.00     0.010 A 
ATOM     16  C   UNL     1      91.752 119.298 117.902  1.00  0.00     0.009 A 
ATOM     17  C   UNL     1      92.559 122.955 118.262  1.00  0.00    -0.020 A 
ATOM     18  C   UNL     1      92.929 121.452 116.590  1.00  0.00     0.046 A 
ATOM     19  C   UNL     1      92.305 119.146 116.622  1.00  0.00     0.003 A 
ATOM     20  C   UNL     1      93.199 123.609 117.235  1.00  0.00     0.087 A 
ATOM     21  N   UNL     1      93.417 122.690 116.229  1.00  0.00    -0.361 N 
ATOM     22  C   UNL     1      92.904 120.218 115.937  1.00  0.00     0.027 A 
ATOM     23  C   UNL     1      92.114 121.783 122.956  1.00  0.00     0.106 C 
ATOM     24  H   UNL     1      93.869 122.893 115.348  1.00  0.00     0.166 HD
ENDBRANCH   5   7
ENDBRANCH   1   3
BRANCH   1  25
ATOM     25  C   UNL     1      86.668 117.800 123.250  1.00  0.00     0.180 C 
BRANCH  25  26
ATOM     26  O   UNL     1      86.963 116.428 123.478  1.00  0.00    -0.394 OA
ATOM     27  H   UNL     1      87.865 116.385 123.843  1.00  0.00     0.210 HD
ENDBRANCH  25  26
ENDBRANCH   1  25
TORSDOF 4
ENDMDL
MODEL 13
REMARK VINA RESULT:    -7.291      3.819      6.372
REMARK INTER + INTRA:          -9.239
REMARK INTER:                  -8.775
REMARK INTRA:                  -0.463
REMARK UNBOUND:                -0.456
REMARK SMILES C[C@@H](CO)NC(=O)[C@@H]1C=C2c3cccc4[nH]cc(c34)C[C@H]2N(C)C1
REMARK SMILES IDX 2 1 1 2 5 3 7 4 6 5 8 7 24 8 9 9 22 10 10 11 21 12 11 13
REMARK SMILES IDX 20 14 19 15 12 16 18 17 15 18 13 19 17 20 16 21 14 22 23 23
REMARK SMILES IDX 3 25 4 26
REMARK H PARENT 5 6 16 24 4 27
ROOT
ATOM      1  C   UNL     1      87.283 124.375 123.951  1.00  0.00     0.104 C 
ATOM      2  C   UNL     1      86.307 125.543 124.083  1.00  0.00     0.033 C 
ENDROOT
BRANCH   1   3
ATOM      3  N   UNL     1      88.646 124.885 123.807  1.00  0.00    -0.351 N 
ATOM      4  O   UNL     1      90.831 124.723 123.416  1.00  0.00    -0.274 OA
ATOM      5  C   UNL     1      89.705 124.295 123.167  1.00  0.00     0.228 C 
ATOM      6  H   UNL     1      88.952 125.595 124.464  1.00  0.00     0.163 HD
BRANCH   5   7
ATOM      7  C   UNL     1      89.432 123.169 122.161  1.00  0.00     0.115 C 
ATOM      8  C   UNL     1      89.630 121.796 122.845  1.00  0.00     0.102 C 
ATOM      9  C   UNL     1      90.357 123.304 120.973  1.00  0.00    -0.007 C 
ATOM     10  N   UNL     1      89.596 120.642 121.924  1.00  0.00    -0.298 NA
ATOM     11  C   UNL     1      90.926 122.225 120.404  1.00  0.00    -0.026 C 
ATOM     12  C   UNL     1      90.640 120.771 120.874  1.00  0.00     0.091 C 
ATOM     13  C   UNL     1      91.963 122.353 119.357  1.00  0.00    -0.011 A 
ATOM     14  C   UNL     1      91.951 120.018 121.311  1.00  0.00     0.061 C 
ATOM     15  C   UNL     1      92.919 121.325 119.395  1.00  0.00     0.010 A 
ATOM     16  C   UNL     1      92.118 123.348 118.389  1.00  0.00     0.009 A 
ATOM     17  C   UNL     1      93.001 120.206 120.262  1.00  0.00    -0.020 A 
ATOM     18  C   UNL     1      93.982 121.285 118.511  1.00  0.00     0.046 A 
ATOM     19  C   UNL     1      93.197 123.299 117.493  1.00  0.00     0.003 A 
ATOM     20  C   UNL     1      94.122 119.497 119.898  1.00  0.00     0.087 A 
ATOM     21  N   UNL     1      94.708 120.159 118.838  1.00  0.00    -0.361 N 
ATOM     22  C   UNL     1      94.153 122.268 117.533  1.00  0.00     0.027 A 
ATOM     23  C   UNL     1      88.270 120.457 121.334  1.00  0.00     0.106 C 
ATOM     24  H   UNL     1      95.552 119.864 118.368  1.00  0.00     0.166 HD
ENDBRANCH   5   7
ENDBRANCH   1   3
BRANCH   1  25
ATOM     25  C   UNL     1      87.174 123.421 125.154  1.00  0.00     0.180 C 
BRANCH  25  26
ATOM     26  O   UNL     1      86.661 122.159 124.747  1.00  0.00    -0.394 OA
ATOM     27  H   UNL     1      86.708 122.131 123.774  1.00  0.00     0.210 HD
ENDBRANCH  25  26
ENDBRANCH   1  25
TORSDOF 4
ENDMDL
MODEL 14
REMARK VINA RESULT:    -7.118      3.265      7.576
REMARK INTER + INTRA:          -9.030
REMARK INTER:                  -8.577
REMARK INTRA:                  -0.453
REMARK UNBOUND:                -0.456
REMARK SMILES C[C@@H](CO)NC(=O)[C@@H]1C=C2c3cccc4[nH]cc(c34)C[C@H]2N(C)C1
REMARK SMILES IDX 2 1 1 2 5 3 7 4 6 5 8 7 24 8 9 9 22 10 10 11 21 12 11 13
REMARK SMILES IDX 20 14 19 15 12 16 18 17 15 18 13 19 17 20 16 21 14 22 23 23
REMARK SMILES IDX 3 25 4 26
REMARK H PARENT 5 6 16 24 4 27
ROOT
ATOM      1  C   UNL     1      95.660 125.467 117.775  1.00  0.00     0.104 C 
ATOM      2  C   UNL     1      95.221 126.432 118.876  1.00  0.00     0.033 C 
ENDROOT
BRANCH   1   3
ATOM      3  N   UNL     1      94.495 125.037 117.004  1.00  0.00    -0.351 N 
ATOM      4  O   UNL     1      93.059 123.550 116.175  1.00  0.00    -0.274 OA
ATOM      5  C   UNL     1      93.805 123.856 117.105  1.00  0.00     0.228 C 
ATOM      6  H   UNL     1      94.325 125.496 116.115  1.00  0.00     0.163 HD
BRANCH   5   7
ATOM      7  C   UNL     1      93.970 123.003 118.370  1.00  0.00     0.115 C 
ATOM      8  C   UNL     1      93.954 121.503 117.995  1.00  0.00     0.102 C 
ATOM      9  C   UNL     1      92.862 123.314 119.349  1.00  0.00    -0.007 C 
ATOM     10  N   UNL     1      93.900 120.584 119.151  1.00  0.00    -0.298 NA
ATOM     11  C   UNL     1      92.266 122.341 120.062  1.00  0.00    -0.026 C 
ATOM     12  C   UNL     1      92.697 120.849 119.982  1.00  0.00     0.091 C 
ATOM     13  C   UNL     1      91.070 122.605 120.892  1.00  0.00    -0.011 A 
ATOM     14  C   UNL     1      91.512 119.910 119.545  1.00  0.00     0.061 C 
ATOM     15  C   UNL     1      90.186 121.515 120.952  1.00  0.00     0.010 A 
ATOM     16  C   UNL     1      90.712 123.769 121.574  1.00  0.00     0.009 A 
ATOM     17  C   UNL     1      90.300 120.232 120.361  1.00  0.00    -0.020 A 
ATOM     18  C   UNL     1      88.999 121.578 121.660  1.00  0.00     0.046 A 
ATOM     19  C   UNL     1      89.509 123.825 122.293  1.00  0.00     0.003 A 
ATOM     20  C   UNL     1      89.172 119.526 120.712  1.00  0.00     0.087 A 
ATOM     21  N   UNL     1      88.393 120.351 121.497  1.00  0.00    -0.361 N 
ATOM     22  C   UNL     1      88.625 122.733 122.352  1.00  0.00     0.027 A 
ATOM     23  C   UNL     1      95.122 120.646 119.951  1.00  0.00     0.106 C 
ATOM     24  H   UNL     1      87.500 120.094 121.896  1.00  0.00     0.166 HD
ENDBRANCH   5   7
ENDBRANCH   1   3
BRANCH   1  25
ATOM     25  C   UNL     1      96.720 126.110 116.862  1.00  0.00     0.180 C 
BRANCH  25  26
ATOM     26  O   UNL     1      96.253 127.353 116.354  1.00  0.00    -0.394 OA
ATOM     27  H   UNL     1      95.285 127.362 116.464  1.00  0.00     0.210 HD
ENDBRANCH  25  26
ENDBRANCH   1  25
TORSDOF 4
ENDMDL
MODEL 15
REMARK VINA RESULT:    -7.116      2.712      5.082
REMARK INTER + INTRA:          -9.028
REMARK INTER:                  -9.514
REMARK INTRA:                   0.486
REMARK UNBOUND:                -0.456
REMARK SMILES C[C@@H](CO)NC(=O)[C@@H]1C=C2c3cccc4[nH]cc(c34)C[C@H]2N(C)C1
REMARK SMILES IDX 2 1 1 2 5 3 7 4 6 5 8 7 24 8 9 9 22 10 10 11 21 12 11 13
REMARK SMILES IDX 20 14 19 15 12 16 18 17 15 18 13 19 17 20 16 21 14 22 23 23
REMARK SMILES IDX 3 25 4 26
REMARK H PARENT 5 6 16 24 4 27
ROOT
ATOM      1  C   UNL     1      90.564 123.034 121.275  1.00  0.00     0.104 C 
ATOM      2  C   UNL     1      90.804 124.057 122.385  1.00  0.00     0.033 C 
ENDROOT
BRANCH   1   3
ATOM      3  N   UNL     1      89.385 122.229 121.593  1.00  0.00    -0.351 N 
ATOM      4  O   UNL     1      87.987 120.514 121.351  1.00  0.00    -0.274 OA
ATOM      5  C   UNL     1      89.146 120.919 121.270  1.00  0.00     0.228 C 
ATOM      6  H   UNL     1      88.529 122.722 121.822  1.00  0.00     0.163 HD
BRANCH   5   7
ATOM      7  C   UNL     1      90.325 120.026 120.859  1.00  0.00     0.115 C 
ATOM      8  C   UNL     1      91.647 120.627 121.393  1.00  0.00     0.102 C 
ATOM      9  C   UNL     1      90.374 119.897 119.355  1.00  0.00    -0.007 C 
ATOM     10  N   UNL     1      92.867 119.966 120.887  1.00  0.00    -0.298 NA
ATOM     11  C   UNL     1      91.544 119.917 118.689  1.00  0.00    -0.026 C 
ATOM     12  C   UNL     1      92.921 120.017 119.402  1.00  0.00     0.091 C 
ATOM     13  C   UNL     1      91.597 119.965 117.211  1.00  0.00    -0.011 A 
ATOM     14  C   UNL     1      93.748 121.269 118.928  1.00  0.00     0.061 C 
ATOM     15  C   UNL     1      92.700 120.684 116.720  1.00  0.00     0.010 A 
ATOM     16  C   UNL     1      90.706 119.428 116.280  1.00  0.00     0.009 A 
ATOM     17  C   UNL     1      93.744 121.326 117.433  1.00  0.00    -0.020 A 
ATOM     18  C   UNL     1      92.909 120.861 115.364  1.00  0.00     0.046 A 
ATOM     19  C   UNL     1      90.927 119.607 114.907  1.00  0.00     0.003 A 
ATOM     20  C   UNL     1      94.578 121.894 116.498  1.00  0.00     0.087 A 
ATOM     21  N   UNL     1      94.063 121.607 115.251  1.00  0.00    -0.361 N 
ATOM     22  C   UNL     1      92.031 120.328 114.417  1.00  0.00     0.027 A 
ATOM     23  C   UNL     1      92.983 118.592 121.375  1.00  0.00     0.106 C 
ATOM     24  H   UNL     1      94.471 121.903 114.375  1.00  0.00     0.166 HD
ENDBRANCH   5   7
ENDBRANCH   1   3
BRANCH   1  25
ATOM     25  C   UNL     1      90.408 123.724 119.908  1.00  0.00     0.180 C 
BRANCH  25  26
ATOM     26  O   UNL     1      89.936 125.055 120.071  1.00  0.00    -0.394 OA
ATOM     27  H   UNL     1      89.079 125.001 120.531  1.00  0.00     0.210 HD
ENDBRANCH  25  26
ENDBRANCH   1  25
TORSDOF 4
ENDMDL
MODEL 16
REMARK VINA RESULT:    -6.969      6.306      9.217
REMARK INTER + INTRA:          -8.850
REMARK INTER:                  -8.439
REMARK INTRA:                  -0.411
REMARK UNBOUND:                -0.456
REMARK SMILES C[C@@H](CO)NC(=O)[C@@H]1C=C2c3cccc4[nH]cc(c34)C[C@H]2N(C)C1
REMARK SMILES IDX 2 1 1 2 5 3 7 4 6 5 8 7 24 8 9 9 22 10 10 11 21 12 11 13
REMARK SMILES IDX 20 14 19 15 12 16 18 17 15 18 13 19 17 20 16 21 14 22 23 23
REMARK SMILES IDX 3 25 4 26
REMARK H PARENT 5 6 16 24 4 27
ROOT
ATOM      1  C   UNL     1      87.842 118.642 122.209  1.00  0.00     0.104 C 
ATOM      2  C   UNL     1      86.583 117.898 122.652  1.00  0.00     0.033 C 
ENDROOT
BRANCH   1   3
ATOM      3  N   UNL     1      88.603 119.066 123.383  1.00  0.00    -0.351 N 
ATOM      4  O   UNL     1      90.193 120.194 124.459  1.00  0.00    -0.274 OA
ATOM      5  C   UNL     1      89.403 120.171 123.516  1.00  0.00     0.228 C 
ATOM      6  H   UNL     1      88.812 118.365 124.085  1.00  0.00     0.163 HD
BRANCH   5   7
ATOM      7  C   UNL     1      89.253 121.324 122.513  1.00  0.00     0.115 C 
ATOM      8  C   UNL     1      90.643 121.916 122.183  1.00  0.00     0.102 C 
ATOM      9  C   UNL     1      88.349 122.391 123.087  1.00  0.00    -0.007 C 
ATOM     10  N   UNL     1      90.606 123.160 121.389  1.00  0.00    -0.298 NA
ATOM     11  C   UNL     1      88.619 123.699 122.921  1.00  0.00    -0.026 C 
ATOM     12  C   UNL     1      89.829 124.214 122.092  1.00  0.00     0.091 C 
ATOM     13  C   UNL     1      87.844 124.748 123.619  1.00  0.00    -0.011 A 
ATOM     14  C   UNL     1      90.790 125.125 122.944  1.00  0.00     0.061 C 
ATOM     15  C   UNL     1      88.611 125.879 123.946  1.00  0.00     0.010 A 
ATOM     16  C   UNL     1      86.501 124.742 124.002  1.00  0.00     0.009 A 
ATOM     17  C   UNL     1      89.978 126.144 123.682  1.00  0.00    -0.020 A 
ATOM     18  C   UNL     1      88.069 126.957 124.623  1.00  0.00     0.046 A 
ATOM     19  C   UNL     1      85.957 125.841 124.684  1.00  0.00     0.003 A 
ATOM     20  C   UNL     1      90.256 127.384 124.208  1.00  0.00     0.087 A 
ATOM     21  N   UNL     1      89.095 127.865 124.776  1.00  0.00    -0.361 N 
ATOM     22  C   UNL     1      86.727 126.971 125.011  1.00  0.00     0.027 A 
ATOM     23  C   UNL     1      90.088 122.929 120.041  1.00  0.00     0.106 C 
ATOM     24  H   UNL     1      89.005 128.758 125.241  1.00  0.00     0.166 HD
ENDBRANCH   5   7
ENDBRANCH   1   3
BRANCH   1  25
ATOM     25  C   UNL     1      88.704 117.769 121.278  1.00  0.00     0.180 C 
BRANCH  25  26
ATOM     26  O   UNL     1      88.443 116.390 121.504  1.00  0.00    -0.394 OA
ATOM     27  H   UNL     1      87.503 116.312 121.745  1.00  0.00     0.210 HD
ENDBRANCH  25  26
ENDBRANCH   1  25
TORSDOF 4
ENDMDL
MODEL 17
REMARK VINA RESULT:    -6.912      4.300      8.889
REMARK INTER + INTRA:          -8.781
REMARK INTER:                  -8.401
REMARK INTRA:                  -0.380
REMARK UNBOUND:                -0.456
REMARK SMILES C[C@@H](CO)NC(=O)[C@@H]1C=C2c3cccc4[nH]cc(c34)C[C@H]2N(C)C1
REMARK SMILES IDX 2 1 1 2 5 3 7 4 6 5 8 7 24 8 9 9 22 10 10 11 21 12 11 13
REMARK SMILES IDX 20 14 19 15 12 16 18 17 15 18 13 19 17 20 16 21 14 22 23 23
REMARK SMILES IDX 3 25 4 26
REMARK H PARENT 5 6 16 24 4 27
ROOT
ATOM      1  C   UNL     1      93.138 120.927 120.039  1.00  0.00     0.104 C 
ATOM      2  C   UNL     1      94.105 121.916 119.389  1.00  0.00     0.033 C 
ENDROOT
BRANCH   1   3
ATOM      3  N   UNL     1      91.841 120.993 119.367  1.00  0.00    -0.351 N 
ATOM      4  O   UNL     1      89.658 120.611 119.150  1.00  0.00    -0.274 OA
ATOM      5  C   UNL     1      90.596 120.825 119.917  1.00  0.00     0.228 C 
ATOM      6  H   UNL     1      91.826 120.867 118.361  1.00  0.00     0.163 HD
BRANCH   5   7
ATOM      7  C   UNL     1      90.432 120.942 121.439  1.00  0.00     0.115 C 
ATOM      8  C   UNL     1      89.108 120.274 121.876  1.00  0.00     0.102 C 
ATOM      9  C   UNL     1      90.450 122.396 121.848  1.00  0.00    -0.007 C 
ATOM     10  N   UNL     1      88.743 120.503 123.288  1.00  0.00    -0.298 NA
ATOM     11  C   UNL     1      89.618 122.865 122.796  1.00  0.00    -0.026 C 
ATOM     12  C   UNL     1      88.626 121.957 123.576  1.00  0.00     0.091 C 
ATOM     13  C   UNL     1      89.503 124.312 123.084  1.00  0.00    -0.011 A 
ATOM     14  C   UNL     1      87.133 122.427 123.413  1.00  0.00     0.061 C 
ATOM     15  C   UNL     1      88.211 124.697 123.481  1.00  0.00     0.010 A 
ATOM     16  C   UNL     1      90.476 125.308 122.988  1.00  0.00     0.009 A 
ATOM     17  C   UNL     1      87.051 123.902 123.657  1.00  0.00    -0.020 A 
ATOM     18  C   UNL     1      87.900 126.013 123.770  1.00  0.00     0.046 A 
ATOM     19  C   UNL     1      90.154 126.641 123.287  1.00  0.00     0.003 A 
ATOM     20  C   UNL     1      86.039 124.748 124.048  1.00  0.00     0.087 A 
ATOM     21  N   UNL     1      86.564 126.022 124.112  1.00  0.00    -0.361 N 
ATOM     22  C   UNL     1      88.861 127.024 123.683  1.00  0.00     0.027 A 
ATOM     23  C   UNL     1      89.683 119.855 124.203  1.00  0.00     0.106 C 
ATOM     24  H   UNL     1      86.045 126.849 124.372  1.00  0.00     0.166 HD
ENDBRANCH   5   7
ENDBRANCH   1   3
BRANCH   1  25
ATOM     25  C   UNL     1      93.703 119.495 120.008  1.00  0.00     0.180 C 
BRANCH  25  26
ATOM     26  O   UNL     1      94.869 119.436 119.197  1.00  0.00    -0.394 OA
ATOM     27  H   UNL     1      94.829 118.601 118.698  1.00  0.00     0.210 HD
ENDBRANCH  25  26
ENDBRANCH   1  25
TORSDOF 4
ENDMDL
MODEL 18
REMARK VINA RESULT:    -6.832      3.729      6.264
REMARK INTER + INTRA:          -8.686
REMARK INTER:                  -9.243
REMARK INTRA:                   0.557
REMARK UNBOUND:                -0.456
REMARK SMILES C[C@@H](CO)NC(=O)[C@@H]1C=C2c3cccc4[nH]cc(c34)C[C@H]2N(C)C1
REMARK SMILES IDX 2 1 1 2 5 3 7 4 6 5 8 7 24 8 9 9 22 10 10 11 21 12 11 13
REMARK SMILES IDX 20 14 19 15 12 16 18 17 15 18 13 19 17 20 16 21 14 22 23 23
REMARK SMILES IDX 3 25 4 26
REMARK H PARENT 5 6 16 24 4 27
ROOT
ATOM      1  C   UNL     1      88.341 119.119 122.422  1.00  0.00     0.104 C 
ATOM      2  C   UNL     1      89.255 118.431 121.409  1.00  0.00     0.033 C 
ENDROOT
BRANCH   1   3
ATOM      3  N   UNL     1      87.436 120.032 121.727  1.00  0.00    -0.351 N 
ATOM      4  O   UNL     1      86.460 121.994 121.329  1.00  0.00    -0.274 OA
ATOM      5  C   UNL     1      87.471 121.403 121.706  1.00  0.00     0.228 C 
ATOM      6  H   UNL     1      86.524 119.677 121.461  1.00  0.00     0.163 HD
BRANCH   5   7
ATOM      7  C   UNL     1      88.764 122.120 122.117  1.00  0.00     0.115 C 
ATOM      8  C   UNL     1      88.768 123.559 121.550  1.00  0.00     0.102 C 
ATOM      9  C   UNL     1      89.963 121.352 121.611  1.00  0.00    -0.007 C 
ATOM     10  N   UNL     1      90.049 124.276 121.707  1.00  0.00    -0.298 NA
ATOM     11  C   UNL     1      91.036 121.986 121.103  1.00  0.00    -0.026 C 
ATOM     12  C   UNL     1      91.156 123.534 121.047  1.00  0.00     0.091 C 
ATOM     13  C   UNL     1      92.139 121.247 120.449  1.00  0.00    -0.011 A 
ATOM     14  C   UNL     1      91.369 124.062 119.580  1.00  0.00     0.061 C 
ATOM     15  C   UNL     1      92.739 121.964 119.400  1.00  0.00     0.010 A 
ATOM     16  C   UNL     1      92.619 119.964 120.717  1.00  0.00     0.009 A 
ATOM     17  C   UNL     1      92.451 123.266 118.921  1.00  0.00    -0.020 A 
ATOM     18  C   UNL     1      93.773 121.429 118.651  1.00  0.00     0.046 A 
ATOM     19  C   UNL     1      93.670 119.431 119.956  1.00  0.00     0.003 A 
ATOM     20  C   UNL     1      93.313 123.510 117.877  1.00  0.00     0.087 A 
ATOM     21  N   UNL     1      94.106 122.392 117.722  1.00  0.00    -0.361 N 
ATOM     22  C   UNL     1      94.270 120.149 118.906  1.00  0.00     0.027 A 
ATOM     23  C   UNL     1      90.353 124.543 123.112  1.00  0.00     0.106 C 
ATOM     24  H   UNL     1      94.831 122.289 117.025  1.00  0.00     0.166 HD
ENDBRANCH   5   7
ENDBRANCH   1   3
BRANCH   1  25
ATOM     25  C   UNL     1      87.556 118.088 123.253  1.00  0.00     0.180 C 
BRANCH  25  26
ATOM     26  O   UNL     1      87.542 116.826 122.599  1.00  0.00    -0.394 OA
ATOM     27  H   UNL     1      86.627 116.495 122.634  1.00  0.00     0.210 HD
ENDBRANCH  25  26
ENDBRANCH   1  25
TORSDOF 4
ENDMDL
MODEL 19
REMARK VINA RESULT:    -6.705      6.353      9.987
REMARK INTER + INTRA:          -8.533
REMARK INTER:                  -8.092
REMARK INTRA:                  -0.441
REMARK UNBOUND:                -0.456
REMARK SMILES C[C@@H](CO)NC(=O)[C@@H]1C=C2c3cccc4[nH]cc(c34)C[C@H]2N(C)C1
REMARK SMILES IDX 2 1 1 2 5 3 7 4 6 5 8 7 24 8 9 9 22 10 10 11 21 12 11 13
REMARK SMILES IDX 20 14 19 15 12 16 18 17 15 18 13 19 17 20 16 21 14 22 23 23
REMARK SMILES IDX 3 25 4 26
REMARK H PARENT 5 6 16 24 4 27
ROOT
ATOM      1  C   UNL     1      87.659 128.585 123.864  1.00  0.00     0.104 C 
ATOM      2  C   UNL     1      88.481 128.839 122.600  1.00  0.00     0.033 C 
ENDROOT
BRANCH   1   3
ATOM      3  N   UNL     1      88.478 127.886 124.852  1.00  0.00    -0.351 N 
ATOM      4  O   UNL     1      88.950 126.257 126.295  1.00  0.00    -0.274 OA
ATOM      5  C   UNL     1      88.390 126.576 125.246  1.00  0.00     0.228 C 
ATOM      6  H   UNL     1      88.976 128.450 125.532  1.00  0.00     0.163 HD
BRANCH   5   7
ATOM      7  C   UNL     1      87.636 125.579 124.355  1.00  0.00     0.115 C 
ATOM      8  C   UNL     1      87.229 124.339 125.185  1.00  0.00     0.102 C 
ATOM      9  C   UNL     1      88.506 125.170 123.189  1.00  0.00    -0.007 C 
ATOM     10  N   UNL     1      86.679 123.224 124.389  1.00  0.00    -0.298 NA
ATOM     11  C   UNL     1      88.537 123.898 122.753  1.00  0.00    -0.026 C 
ATOM     12  C   UNL     1      87.655 122.773 123.363  1.00  0.00     0.091 C 
ATOM     13  C   UNL     1      89.508 123.449 121.730  1.00  0.00    -0.011 A 
ATOM     14  C   UNL     1      88.514 121.576 123.917  1.00  0.00     0.061 C 
ATOM     15  C   UNL     1      89.920 122.117 121.905  1.00  0.00     0.010 A 
ATOM     16  C   UNL     1      90.063 124.167 120.669  1.00  0.00     0.009 A 
ATOM     17  C   UNL     1      89.523 121.175 122.886  1.00  0.00    -0.020 A 
ATOM     18  C   UNL     1      90.844 121.524 121.062  1.00  0.00     0.046 A 
ATOM     19  C   UNL     1      90.996 123.557 119.816  1.00  0.00     0.003 A 
ATOM     20  C   UNL     1      90.216 120.014 122.632  1.00  0.00     0.087 A 
ATOM     21  N   UNL     1      91.013 120.238 121.528  1.00  0.00    -0.361 N 
ATOM     22  C   UNL     1      91.408 122.225 119.994  1.00  0.00     0.027 A 
ATOM     23  C   UNL     1      85.394 123.572 123.782  1.00  0.00     0.106 C 
ATOM     24  H   UNL     1      91.635 119.556 121.117  1.00  0.00     0.166 HD
ENDBRANCH   5   7
ENDBRANCH   1   3
BRANCH   1  25
ATOM     25  C   UNL     1      87.102 129.900 124.439  1.00  0.00     0.180 C 
BRANCH  25  26
ATOM     26  O   UNL     1      86.225 130.521 123.508  1.00  0.00    -0.394 OA
ATOM     27  H   UNL     1      85.669 129.819 123.126  1.00  0.00     0.210 HD
ENDBRANCH  25  26
ENDBRANCH   1  25
TORSDOF 4
ENDMDL
