MODEL 1
REMARK VINA RESULT:    -8.262      0.000      0.000
REMARK INTER + INTRA:         -10.196
REMARK INTER:                  -9.953
REMARK INTRA:                  -0.243
REMARK UNBOUND:                -0.243
REMARK SMILES C[C@@H](CO)NC(=O)[C@@H]1C=C2c3cccc4[nH]cc(c34)C[C@H]2N(C)C1
REMARK SMILES IDX 2 1 1 2 5 3 7 4 6 5 8 7 24 8 9 9 22 10 10 11 21 12 11 13
REMARK SMILES IDX 20 14 19 15 12 16 18 17 15 18 13 19 17 20 16 21 14 22 23 23
REMARK SMILES IDX 3 25 4 26
REMARK H PARENT 5 6 16 24 4 27
ROOT
ATOM      1  C   UNL     1      91.525 106.555  74.068  1.00  0.00     0.104 C 
ATOM      2  C   UNL     1      91.896 105.104  74.374  1.00  0.00     0.033 C 
ENDROOT
BRANCH   1   3
ATOM      3  N   UNL     1      92.418 107.455  74.795  1.00  0.00    -0.351 N 
ATOM      4  O   UNL     1      92.939 108.957  76.354  1.00  0.00    -0.274 OA
ATOM      5  C   UNL     1      92.240 107.993  76.044  1.00  0.00     0.228 C 
ATOM      6  H   UNL     1      93.099 107.978  74.256  1.00  0.00     0.163 HD
BRANCH   5   7
ATOM      7  C   UNL     1      91.216 107.353  76.991  1.00  0.00     0.115 C 
ATOM      8  C   UNL     1      89.827 107.997  76.773  1.00  0.00     0.102 C 
ATOM      9  C   UNL     1      91.660 107.529  78.425  1.00  0.00    -0.007 C 
ATOM     10  N   UNL     1      88.808 107.607  77.769  1.00  0.00    -0.298 NA
ATOM     11  C   UNL     1      90.779 107.826  79.398  1.00  0.00    -0.026 C 
ATOM     12  C   UNL     1      89.250 107.955  79.144  1.00  0.00     0.091 C 
ATOM     13  C   UNL     1      91.219 108.170  80.768  1.00  0.00    -0.011 A 
ATOM     14  C   UNL     1      88.696 109.370  79.555  1.00  0.00     0.061 C 
ATOM     15  C   UNL     1      90.381 109.103  81.401  1.00  0.00     0.010 A 
ATOM     16  C   UNL     1      92.337 107.719  81.472  1.00  0.00     0.009 A 
ATOM     17  C   UNL     1      89.198 109.718  80.922  1.00  0.00    -0.020 A 
ATOM     18  C   UNL     1      90.642 109.568  82.678  1.00  0.00     0.046 A 
ATOM     19  C   UNL     1      92.592 108.191  82.768  1.00  0.00     0.003 A 
ATOM     20  C   UNL     1      88.751 110.559  81.915  1.00  0.00     0.087 A 
ATOM     21  N   UNL     1      89.633 110.461  82.971  1.00  0.00    -0.361 N 
ATOM     22  C   UNL     1      91.753 109.126  83.400  1.00  0.00     0.027 A 
ATOM     23  C   UNL     1      88.463 106.190  77.665  1.00  0.00     0.106 C 
ATOM     24  H   UNL     1      89.554 110.971  83.840  1.00  0.00     0.166 HD
ENDBRANCH   5   7
ENDBRANCH   1   3
BRANCH   1  25
ATOM     25  C   UNL     1      91.572 106.834  72.555  1.00  0.00     0.180 C 
BRANCH  25  26
ATOM     26  O   UNL     1      91.997 105.676  71.847  1.00  0.00    -0.394 OA
ATOM     27  H   UNL     1      91.726 105.792  70.918  1.00  0.00     0.210 HD
ENDBRANCH  25  26
ENDBRANCH   1  25
TORSDOF 4
ENDMDL
MODEL 2
REMARK VINA RESULT:    -7.761      2.920      7.303
REMARK INTER + INTRA:          -9.592
REMARK INTER:                  -9.129
REMARK INTRA:                  -0.463
REMARK UNBOUND:                -0.243
REMARK SMILES C[C@@H](CO)NC(=O)[C@@H]1C=C2c3cccc4[nH]cc(c34)C[C@H]2N(C)C1
REMARK SMILES IDX 2 1 1 2 5 3 7 4 6 5 8 7 24 8 9 9 22 10 10 11 21 12 11 13
REMARK SMILES IDX 20 14 19 15 12 16 18 17 15 18 13 19 17 20 16 21 14 22 23 23
REMARK SMILES IDX 3 25 4 26
REMARK H PARENT 5 6 16 24 4 27
ROOT
ATOM      1  C   UNL     1      88.509 110.852  82.242  1.00  0.00     0.104 C 
ATOM      2  C   UNL     1      88.600 112.241  81.613  1.00  0.00     0.033 C 
ENDROOT
BRANCH   1   3
ATOM      3  N   UNL     1      89.839 110.248  82.297  1.00  0.00    -0.351 N 
ATOM      4  O   UNL     1      91.348 108.650  81.938  1.00  0.00    -0.274 OA
ATOM      5  C   UNL     1      90.329 109.215  81.541  1.00  0.00     0.228 C 
ATOM      6  H   UNL     1      90.382 110.383  83.144  1.00  0.00     0.163 HD
BRANCH   5   7
ATOM      7  C   UNL     1      89.610 108.840  80.238  1.00  0.00     0.115 C 
ATOM      8  C   UNL     1      89.835 107.341  79.928  1.00  0.00     0.102 C 
ATOM      9  C   UNL     1      90.122 109.696  79.103  1.00  0.00    -0.007 C 
ATOM     10  N   UNL     1      89.363 106.915  78.595  1.00  0.00    -0.298 NA
ATOM     11  C   UNL     1      90.338 109.178  77.879  1.00  0.00    -0.026 C 
ATOM     12  C   UNL     1      90.029 107.697  77.521  1.00  0.00     0.091 C 
ATOM     13  C   UNL     1      90.999 109.958  76.809  1.00  0.00    -0.011 A 
ATOM     14  C   UNL     1      91.303 106.933  76.999  1.00  0.00     0.061 C 
ATOM     15  C   UNL     1      91.777 109.166  75.948  1.00  0.00     0.010 A 
ATOM     16  C   UNL     1      90.968 111.334  76.576  1.00  0.00     0.009 A 
ATOM     17  C   UNL     1      91.984 107.765  75.957  1.00  0.00    -0.020 A 
ATOM     18  C   UNL     1      92.492 109.718  74.900  1.00  0.00     0.046 A 
ATOM     19  C   UNL     1      91.692 111.885  75.509  1.00  0.00     0.003 A 
ATOM     20  C   UNL     1      92.831 107.476  74.912  1.00  0.00     0.087 A 
ATOM     21  N   UNL     1      93.133 108.666  74.281  1.00  0.00    -0.361 N 
ATOM     22  C   UNL     1      92.471 111.092  74.648  1.00  0.00     0.027 A 
ATOM     23  C   UNL     1      87.907 106.994  78.483  1.00  0.00     0.106 C 
ATOM     24  H   UNL     1      93.739 108.756  73.478  1.00  0.00     0.166 HD
ENDBRANCH   5   7
ENDBRANCH   1   3
BRANCH   1  25
ATOM     25  C   UNL     1      87.874 110.917  83.643  1.00  0.00     0.180 C 
BRANCH  25  26
ATOM     26  O   UNL     1      88.089 112.193  84.230  1.00  0.00    -0.394 OA
ATOM     27  H   UNL     1      87.265 112.442  84.686  1.00  0.00     0.210 HD
ENDBRANCH  25  26
ENDBRANCH   1  25
TORSDOF 4
ENDMDL
MODEL 3
REMARK VINA RESULT:    -7.550      3.256      4.796
REMARK INTER + INTRA:          -9.337
REMARK INTER:                  -9.574
REMARK INTRA:                   0.237
REMARK UNBOUND:                -0.243
REMARK SMILES C[C@@H](CO)NC(=O)[C@@H]1C=C2c3cccc4[nH]cc(c34)C[C@H]2N(C)C1
REMARK SMILES IDX 2 1 1 2 5 3 7 4 6 5 8 7 24 8 9 9 22 10 10 11 21 12 11 13
REMARK SMILES IDX 20 14 19 15 12 16 18 17 15 18 13 19 17 20 16 21 14 22 23 23
REMARK SMILES IDX 3 25 4 26
REMARK H PARENT 5 6 16 24 4 27
ROOT
ATOM      1  C   UNL     1      93.549 109.851  73.511  1.00  0.00     0.104 C 
ATOM      2  C   UNL     1      94.177 108.474  73.723  1.00  0.00     0.033 C 
ENDROOT
BRANCH   1   3
ATOM      3  N   UNL     1      94.249 110.843  74.325  1.00  0.00    -0.351 N 
ATOM      4  O   UNL     1      94.481 112.792  75.375  1.00  0.00    -0.274 OA
ATOM      5  C   UNL     1      93.713 111.903  75.009  1.00  0.00     0.228 C 
ATOM      6  H   UNL     1      95.244 110.963  74.165  1.00  0.00     0.163 HD
BRANCH   5   7
ATOM      7  C   UNL     1      92.208 111.911  75.310  1.00  0.00     0.115 C 
ATOM      8  C   UNL     1      91.942 112.665  76.634  1.00  0.00     0.102 C 
ATOM      9  C   UNL     1      91.693 110.493  75.398  1.00  0.00    -0.007 C 
ATOM     10  N   UNL     1      90.555 112.561  77.129  1.00  0.00    -0.298 NA
ATOM     11  C   UNL     1      90.792 110.134  76.331  1.00  0.00    -0.026 C 
ATOM     12  C   UNL     1      90.173 111.140  77.341  1.00  0.00     0.091 C 
ATOM     13  C   UNL     1      90.409 108.720  76.540  1.00  0.00    -0.011 A 
ATOM     14  C   UNL     1      90.435 110.721  78.835  1.00  0.00     0.061 C 
ATOM     15  C   UNL     1      90.103 108.421  77.878  1.00  0.00     0.010 A 
ATOM     16  C   UNL     1      90.344 107.679  75.611  1.00  0.00     0.009 A 
ATOM     17  C   UNL     1      90.091 109.275  79.009  1.00  0.00    -0.020 A 
ATOM     18  C   UNL     1      89.747 107.145  78.277  1.00  0.00     0.046 A 
ATOM     19  C   UNL     1      89.978 106.389  76.022  1.00  0.00     0.003 A 
ATOM     20  C   UNL     1      89.731 108.504  80.091  1.00  0.00     0.087 A 
ATOM     21  N   UNL     1      89.527 107.218  79.636  1.00  0.00    -0.361 N 
ATOM     22  C   UNL     1      89.673 106.092  77.362  1.00  0.00     0.027 A 
ATOM     23  C   UNL     1      89.610 113.238  76.242  1.00  0.00     0.106 C 
ATOM     24  H   UNL     1      89.255 106.436  80.215  1.00  0.00     0.166 HD
ENDBRANCH   5   7
ENDBRANCH   1   3
BRANCH   1  25
ATOM     25  C   UNL     1      93.566 110.246  72.023  1.00  0.00     0.180 C 
BRANCH  25  26
ATOM     26  O   UNL     1      92.601 111.257  71.763  1.00  0.00    -0.394 OA
ATOM     27  H   UNL     1      92.019 111.305  72.543  1.00  0.00     0.210 HD
ENDBRANCH  25  26
ENDBRANCH   1  25
TORSDOF 4
ENDMDL
MODEL 4
REMARK VINA RESULT:    -7.513      2.296      4.237
REMARK INTER + INTRA:          -9.293
REMARK INTER:                  -8.860
REMARK INTRA:                  -0.433
REMARK UNBOUND:                -0.243
REMARK SMILES C[C@@H](CO)NC(=O)[C@@H]1C=C2c3cccc4[nH]cc(c34)C[C@H]2N(C)C1
REMARK SMILES IDX 2 1 1 2 5 3 7 4 6 5 8 7 24 8 9 9 22 10 10 11 21 12 11 13
REMARK SMILES IDX 20 14 19 15 12 16 18 17 15 18 13 19 17 20 16 21 14 22 23 23
REMARK SMILES IDX 3 25 4 26
REMARK H PARENT 5 6 16 24 4 27
ROOT
ATOM      1  C   UNL     1      91.619 106.942  77.020  1.00  0.00     0.104 C 
ATOM      2  C   UNL     1      91.860 108.066  76.013  1.00  0.00     0.033 C 
ENDROOT
BRANCH   1   3
ATOM      3  N   UNL     1      90.226 106.970  77.464  1.00  0.00    -0.351 N 
ATOM      4  O   UNL     1      88.583 106.877  78.965  1.00  0.00    -0.274 OA
ATOM      5  C   UNL     1      89.748 107.197  78.729  1.00  0.00     0.228 C 
ATOM      6  H   UNL     1      89.538 106.505  76.881  1.00  0.00     0.163 HD
BRANCH   5   7
ATOM      7  C   UNL     1      90.667 107.860  79.764  1.00  0.00     0.115 C 
ATOM      8  C   UNL     1      90.729 106.992  81.042  1.00  0.00     0.102 C 
ATOM      9  C   UNL     1      90.159 109.245  80.092  1.00  0.00    -0.007 C 
ATOM     10  N   UNL     1      91.418 107.629  82.182  1.00  0.00    -0.298 NA
ATOM     11  C   UNL     1      90.177 109.716  81.352  1.00  0.00    -0.026 C 
ATOM     12  C   UNL     1      90.763 108.913  82.547  1.00  0.00     0.091 C 
ATOM     13  C   UNL     1      89.527 110.995  81.715  1.00  0.00    -0.011 A 
ATOM     14  C   UNL     1      89.703 108.681  83.687  1.00  0.00     0.061 C 
ATOM     15  C   UNL     1      88.996 110.997  83.016  1.00  0.00     0.010 A 
ATOM     16  C   UNL     1      89.360 112.147  80.943  1.00  0.00     0.009 A 
ATOM     17  C   UNL     1      89.023 109.977  83.999  1.00  0.00    -0.020 A 
ATOM     18  C   UNL     1      88.329 112.096  83.528  1.00  0.00     0.046 A 
ATOM     19  C   UNL     1      88.685 113.258  81.471  1.00  0.00     0.003 A 
ATOM     20  C   UNL     1      88.363 110.466  85.103  1.00  0.00     0.087 A 
ATOM     21  N   UNL     1      87.947 111.747  84.806  1.00  0.00    -0.361 N 
ATOM     22  C   UNL     1      88.154 113.258  82.773  1.00  0.00     0.027 A 
ATOM     23  C   UNL     1      92.844 107.817  81.919  1.00  0.00     0.106 C 
ATOM     24  H   UNL     1      87.432 112.348  85.434  1.00  0.00     0.166 HD
ENDBRANCH   5   7
ENDBRANCH   1   3
BRANCH   1  25
ATOM     25  C   UNL     1      91.980 105.571  76.420  1.00  0.00     0.180 C 
BRANCH  25  26
ATOM     26  O   UNL     1      92.585 104.740  77.402  1.00  0.00    -0.394 OA
ATOM     27  H   UNL     1      93.533 104.964  77.422  1.00  0.00     0.210 HD
ENDBRANCH  25  26
ENDBRANCH   1  25
TORSDOF 4
ENDMDL
MODEL 5
REMARK VINA RESULT:    -7.446      3.256      7.497
REMARK INTER + INTRA:          -9.212
REMARK INTER:                  -9.208
REMARK INTRA:                  -0.005
REMARK UNBOUND:                -0.243
REMARK SMILES C[C@@H](CO)NC(=O)[C@@H]1C=C2c3cccc4[nH]cc(c34)C[C@H]2N(C)C1
REMARK SMILES IDX 2 1 1 2 5 3 7 4 6 5 8 7 24 8 9 9 22 10 10 11 21 12 11 13
REMARK SMILES IDX 20 14 19 15 12 16 18 17 15 18 13 19 17 20 16 21 14 22 23 23
REMARK SMILES IDX 3 25 4 26
REMARK H PARENT 5 6 16 24 4 27
ROOT
ATOM      1  C   UNL     1      88.847 110.058  83.249  1.00  0.00     0.104 C 
ATOM      2  C   UNL     1      87.686 110.560  84.107  1.00  0.00     0.033 C 
ENDROOT
BRANCH   1   3
ATOM      3  N   UNL     1      89.539 111.194  82.643  1.00  0.00    -0.351 N 
ATOM      4  O   UNL     1      90.816 112.203  81.124  1.00  0.00    -0.274 OA
ATOM      5  C   UNL     1      89.998 111.314  81.357  1.00  0.00     0.228 C 
ATOM      6  H   UNL     1      89.991 111.855  83.266  1.00  0.00     0.163 HD
BRANCH   5   7
ATOM      7  C   UNL     1      89.452 110.367  80.280  1.00  0.00     0.115 C 
ATOM      8  C   UNL     1      89.991 108.937  80.517  1.00  0.00     0.102 C 
ATOM      9  C   UNL     1      89.852 110.860  78.909  1.00  0.00    -0.007 C 
ATOM     10  N   UNL     1      89.699 107.984  79.428  1.00  0.00    -0.298 NA
ATOM     11  C   UNL     1      90.242 110.006  77.945  1.00  0.00    -0.026 C 
ATOM     12  C   UNL     1      90.260 108.464  78.138  1.00  0.00     0.091 C 
ATOM     13  C   UNL     1      90.799 110.484  76.660  1.00  0.00    -0.011 A 
ATOM     14  C   UNL     1      91.691 107.851  77.903  1.00  0.00     0.061 C 
ATOM     15  C   UNL     1      91.772 109.624  76.124  1.00  0.00     0.010 A 
ATOM     16  C   UNL     1      90.507 111.654  75.955  1.00  0.00     0.009 A 
ATOM     17  C   UNL     1      92.254 108.390  76.625  1.00  0.00    -0.020 A 
ATOM     18  C   UNL     1      92.426 109.913  74.939  1.00  0.00     0.046 A 
ATOM     19  C   UNL     1      91.171 111.937  74.753  1.00  0.00     0.003 A 
ATOM     20  C   UNL     1      93.206 107.940  75.739  1.00  0.00     0.087 A 
ATOM     21  N   UNL     1      93.302 108.870  74.724  1.00  0.00    -0.361 N 
ATOM     22  C   UNL     1      92.145 111.076  74.218  1.00  0.00     0.027 A 
ATOM     23  C   UNL     1      88.266 107.712  79.314  1.00  0.00     0.106 C 
ATOM     24  H   UNL     1      93.927 108.800  73.933  1.00  0.00     0.166 HD
ENDBRANCH   5   7
ENDBRANCH   1   3
BRANCH   1  25
ATOM     25  C   UNL     1      89.818 109.197  84.077  1.00  0.00     0.180 C 
BRANCH  25  26
ATOM     26  O   UNL     1      89.227 108.828  85.316  1.00  0.00    -0.394 OA
ATOM     27  H   UNL     1      89.524 107.923  85.517  1.00  0.00     0.210 HD
ENDBRANCH  25  26
ENDBRANCH   1  25
TORSDOF 4
ENDMDL
MODEL 6
REMARK VINA RESULT:    -7.101      3.516      7.224
REMARK INTER + INTRA:          -8.797
REMARK INTER:                  -9.837
REMARK INTRA:                   1.040
REMARK UNBOUND:                -0.243
REMARK SMILES C[C@@H](CO)NC(=O)[C@@H]1C=C2c3cccc4[nH]cc(c34)C[C@H]2N(C)C1
REMARK SMILES IDX 2 1 1 2 5 3 7 4 6 5 8 7 24 8 9 9 22 10 10 11 21 12 11 13
REMARK SMILES IDX 20 14 19 15 12 16 18 17 15 18 13 19 17 20 16 21 14 22 23 23
REMARK SMILES IDX 3 25 4 26
REMARK H PARENT 5 6 16 24 4 27
ROOT
ATOM      1  C   UNL     1      87.102 113.063  80.328  1.00  0.00     0.104 C 
ATOM      2  C   UNL     1      87.323 114.396  81.041  1.00  0.00     0.033 C 
ENDROOT
BRANCH   1   3
ATOM      3  N   UNL     1      86.178 112.237  81.104  1.00  0.00    -0.351 N 
ATOM      4  O   UNL     1      85.356 110.324  81.892  1.00  0.00    -0.274 OA
ATOM      5  C   UNL     1      86.353 110.945  81.526  1.00  0.00     0.228 C 
ATOM      6  H   UNL     1      85.199 112.503  81.106  1.00  0.00     0.163 HD
BRANCH   5   7
ATOM      7  C   UNL     1      87.770 110.356  81.553  1.00  0.00     0.115 C 
ATOM      8  C   UNL     1      88.806 111.471  81.275  1.00  0.00     0.102 C 
ATOM      9  C   UNL     1      87.891 109.256  80.524  1.00  0.00    -0.007 C 
ATOM     10  N   UNL     1      90.187 110.987  81.073  1.00  0.00    -0.298 NA
ATOM     11  C   UNL     1      89.000 109.118  79.775  1.00  0.00    -0.026 C 
ATOM     12  C   UNL     1      90.251 110.026  79.941  1.00  0.00     0.091 C 
ATOM     13  C   UNL     1      89.066 108.160  78.649  1.00  0.00    -0.011 A 
ATOM     14  C   UNL     1      90.624 110.776  78.608  1.00  0.00     0.061 C 
ATOM     15  C   UNL     1      89.876 108.603  77.591  1.00  0.00     0.010 A 
ATOM     16  C   UNL     1      88.423 106.928  78.504  1.00  0.00     0.009 A 
ATOM     17  C   UNL     1      90.632 109.796  77.476  1.00  0.00    -0.020 A 
ATOM     18  C   UNL     1      90.043 107.855  76.438  1.00  0.00     0.046 A 
ATOM     19  C   UNL     1      88.600 106.174  77.334  1.00  0.00     0.003 A 
ATOM     20  C   UNL     1      91.249 109.765  76.247  1.00  0.00     0.087 A 
ATOM     21  N   UNL     1      90.885 108.587  75.628  1.00  0.00    -0.361 N 
ATOM     22  C   UNL     1      89.412 106.619  76.276  1.00  0.00     0.027 A 
ATOM     23  C   UNL     1      90.743 110.406  82.295  1.00  0.00     0.106 C 
ATOM     24  H   UNL     1      91.189 108.299  74.709  1.00  0.00     0.166 HD
ENDBRANCH   5   7
ENDBRANCH   1   3
BRANCH   1  25
ATOM     25  C   UNL     1      86.579 113.279  78.896  1.00  0.00     0.180 C 
BRANCH  25  26
ATOM     26  O   UNL     1      87.503 114.049  78.138  1.00  0.00    -0.394 OA
ATOM     27  H   UNL     1      86.988 114.712  77.645  1.00  0.00     0.210 HD
ENDBRANCH  25  26
ENDBRANCH   1  25
TORSDOF 4
ENDMDL
MODEL 7
REMARK VINA RESULT:    -7.049      2.962      7.541
REMARK INTER + INTRA:          -8.734
REMARK INTER:                  -8.300
REMARK INTRA:                  -0.433
REMARK UNBOUND:                -0.243
REMARK SMILES C[C@@H](CO)NC(=O)[C@@H]1C=C2c3cccc4[nH]cc(c34)C[C@H]2N(C)C1
REMARK SMILES IDX 2 1 1 2 5 3 7 4 6 5 8 7 24 8 9 9 22 10 10 11 21 12 11 13
REMARK SMILES IDX 20 14 19 15 12 16 18 17 15 18 13 19 17 20 16 21 14 22 23 23
REMARK SMILES IDX 3 25 4 26
REMARK H PARENT 5 6 16 24 4 27
ROOT
ATOM      1  C   UNL     1      87.285 110.669  82.810  1.00  0.00     0.104 C 
ATOM      2  C   UNL     1      85.844 110.267  83.121  1.00  0.00     0.033 C 
ENDROOT
BRANCH   1   3
ATOM      3  N   UNL     1      87.369 111.177  81.441  1.00  0.00    -0.351 N 
ATOM      4  O   UNL     1      88.337 111.490  79.461  1.00  0.00    -0.274 OA
ATOM      5  C   UNL     1      88.193 110.749  80.432  1.00  0.00     0.228 C 
ATOM      6  H   UNL     1      87.011 112.109  81.263  1.00  0.00     0.163 HD
BRANCH   5   7
ATOM      7  C   UNL     1      88.858 109.371  80.548  1.00  0.00     0.115 C 
ATOM      8  C   UNL     1      90.368 109.541  80.837  1.00  0.00     0.102 C 
ATOM      9  C   UNL     1      88.650 108.589  79.272  1.00  0.00    -0.007 C 
ATOM     10  N   UNL     1      91.149 108.290  80.766  1.00  0.00    -0.298 NA
ATOM     11  C   UNL     1      89.632 107.834  78.747  1.00  0.00    -0.026 C 
ATOM     12  C   UNL     1      91.020 107.659  79.426  1.00  0.00     0.091 C 
ATOM     13  C   UNL     1      89.502 107.204  77.414  1.00  0.00    -0.011 A 
ATOM     14  C   UNL     1      92.202 108.113  78.491  1.00  0.00     0.061 C 
ATOM     15  C   UNL     1      90.723 107.111  76.724  1.00  0.00     0.010 A 
ATOM     16  C   UNL     1      88.356 106.733  76.771  1.00  0.00     0.009 A 
ATOM     17  C   UNL     1      92.020 107.507  77.135  1.00  0.00    -0.020 A 
ATOM     18  C   UNL     1      90.801 106.573  75.452  1.00  0.00     0.046 A 
ATOM     19  C   UNL     1      88.443 106.186  75.483  1.00  0.00     0.003 A 
ATOM     20  C   UNL     1      92.877 107.210  76.101  1.00  0.00     0.087 A 
ATOM     21  N   UNL     1      92.129 106.647  75.088  1.00  0.00    -0.361 N 
ATOM     22  C   UNL     1      89.665 106.094  74.794  1.00  0.00     0.027 A 
ATOM     23  C   UNL     1      90.778 107.357  81.829  1.00  0.00     0.106 C 
ATOM     24  H   UNL     1      92.499 106.333  74.202  1.00  0.00     0.166 HD
ENDBRANCH   5   7
ENDBRANCH   1   3
BRANCH   1  25
ATOM     25  C   UNL     1      87.801 111.712  83.818  1.00  0.00     0.180 C 
BRANCH  25  26
ATOM     26  O   UNL     1      87.975 112.974  83.187  1.00  0.00    -0.394 OA
ATOM     27  H   UNL     1      87.293 113.570  83.545  1.00  0.00     0.210 HD
ENDBRANCH  25  26
ENDBRANCH   1  25
TORSDOF 4
ENDMDL
MODEL 8
REMARK VINA RESULT:    -6.706      1.843      3.009
REMARK INTER + INTRA:          -8.321
REMARK INTER:                  -8.791
REMARK INTRA:                   0.470
REMARK UNBOUND:                -0.243
REMARK SMILES C[C@@H](CO)NC(=O)[C@@H]1C=C2c3cccc4[nH]cc(c34)C[C@H]2N(C)C1
REMARK SMILES IDX 2 1 1 2 5 3 7 4 6 5 8 7 24 8 9 9 22 10 10 11 21 12 11 13
REMARK SMILES IDX 20 14 19 15 12 16 18 17 15 18 13 19 17 20 16 21 14 22 23 23
REMARK SMILES IDX 3 25 4 26
REMARK H PARENT 5 6 16 24 4 27
ROOT
ATOM      1  C   UNL     1      90.740 110.808  76.336  1.00  0.00     0.104 C 
ATOM      2  C   UNL     1      90.233 111.753  75.247  1.00  0.00     0.033 C 
ENDROOT
BRANCH   1   3
ATOM      3  N   UNL     1      91.853 110.014  75.819  1.00  0.00    -0.351 N 
ATOM      4  O   UNL     1      93.394 108.409  75.894  1.00  0.00    -0.274 OA
ATOM      5  C   UNL     1      92.268 108.774  76.231  1.00  0.00     0.228 C 
ATOM      6  H   UNL     1      92.581 110.503  75.308  1.00  0.00     0.163 HD
BRANCH   5   7
ATOM      7  C   UNL     1      91.309 107.903  77.053  1.00  0.00     0.115 C 
ATOM      8  C   UNL     1      89.851 108.366  76.820  1.00  0.00     0.102 C 
ATOM      9  C   UNL     1      91.662 107.991  78.520  1.00  0.00    -0.007 C 
ATOM     10  N   UNL     1      88.859 107.737  77.715  1.00  0.00    -0.298 NA
ATOM     11  C   UNL     1      90.707 108.060  79.465  1.00  0.00    -0.026 C 
ATOM     12  C   UNL     1      89.188 108.000  79.140  1.00  0.00     0.091 C 
ATOM     13  C   UNL     1      91.035 108.319  80.885  1.00  0.00    -0.011 A 
ATOM     14  C   UNL     1      88.418 109.273  79.653  1.00  0.00     0.061 C 
ATOM     15  C   UNL     1      90.044 109.056  81.556  1.00  0.00     0.010 A 
ATOM     16  C   UNL     1      92.175 107.959  81.605  1.00  0.00     0.009 A 
ATOM     17  C   UNL     1      88.806 109.546  81.072  1.00  0.00    -0.020 A 
ATOM     18  C   UNL     1      90.181 109.419  82.885  1.00  0.00     0.046 A 
ATOM     19  C   UNL     1      92.305 108.326  82.952  1.00  0.00     0.003 A 
ATOM     20  C   UNL     1      88.200 110.209  82.115  1.00  0.00     0.087 A 
ATOM     21  N   UNL     1      89.042 110.126  83.205  1.00  0.00    -0.361 N 
ATOM     22  C   UNL     1      91.313 109.065  83.622  1.00  0.00     0.027 A 
ATOM     23  C   UNL     1      88.727 106.303  77.456  1.00  0.00     0.106 C 
ATOM     24  H   UNL     1      88.853 110.529  84.113  1.00  0.00     0.166 HD
ENDBRANCH   5   7
ENDBRANCH   1   3
BRANCH   1  25
ATOM     25  C   UNL     1      91.156 111.586  77.597  1.00  0.00     0.180 C 
BRANCH  25  26
ATOM     26  O   UNL     1      90.028 111.830  78.428  1.00  0.00    -0.394 OA
ATOM     27  H   UNL     1      90.082 111.207  79.175  1.00  0.00     0.210 HD
ENDBRANCH  25  26
ENDBRANCH   1  25
TORSDOF 4
ENDMDL
MODEL 9
REMARK VINA RESULT:    -6.615      2.651      7.314
REMARK INTER + INTRA:          -8.211
REMARK INTER:                  -7.913
REMARK INTRA:                  -0.298
REMARK UNBOUND:                -0.243
REMARK SMILES C[C@@H](CO)NC(=O)[C@@H]1C=C2c3cccc4[nH]cc(c34)C[C@H]2N(C)C1
REMARK SMILES IDX 2 1 1 2 5 3 7 4 6 5 8 7 24 8 9 9 22 10 10 11 21 12 11 13
REMARK SMILES IDX 20 14 19 15 12 16 18 17 15 18 13 19 17 20 16 21 14 22 23 23
REMARK SMILES IDX 3 25 4 26
REMARK H PARENT 5 6 16 24 4 27
ROOT
ATOM      1  C   UNL     1      90.104 108.875  83.091  1.00  0.00     0.104 C 
ATOM      2  C   UNL     1      89.851 110.345  82.758  1.00  0.00     0.033 C 
ENDROOT
BRANCH   1   3
ATOM      3  N   UNL     1      91.391 108.459  82.536  1.00  0.00    -0.351 N 
ATOM      4  O   UNL     1      92.724 107.377  81.118  1.00  0.00    -0.274 OA
ATOM      5  C   UNL     1      91.648 107.950  81.290  1.00  0.00     0.228 C 
ATOM      6  H   UNL     1      92.137 108.245  83.190  1.00  0.00     0.163 HD
BRANCH   5   7
ATOM      7  C   UNL     1      90.609 108.144  80.177  1.00  0.00     0.115 C 
ATOM      8  C   UNL     1      89.794 106.843  79.988  1.00  0.00     0.102 C 
ATOM      9  C   UNL     1      91.300 108.526  78.888  1.00  0.00    -0.007 C 
ATOM     10  N   UNL     1      88.905 106.844  78.808  1.00  0.00    -0.298 NA
ATOM     11  C   UNL     1      90.900 108.024  77.706  1.00  0.00    -0.026 C 
ATOM     12  C   UNL     1      89.680 107.071  77.560  1.00  0.00     0.091 C 
ATOM     13  C   UNL     1      91.670 108.251  76.463  1.00  0.00    -0.011 A 
ATOM     14  C   UNL     1      90.074 105.695  76.905  1.00  0.00     0.061 C 
ATOM     15  C   UNL     1      91.602 107.173  75.564  1.00  0.00     0.010 A 
ATOM     16  C   UNL     1      92.448 109.352  76.099  1.00  0.00     0.009 A 
ATOM     17  C   UNL     1      90.897 105.950  75.681  1.00  0.00    -0.020 A 
ATOM     18  C   UNL     1      92.277 107.188  74.357  1.00  0.00     0.046 A 
ATOM     19  C   UNL     1      93.126 109.362  74.871  1.00  0.00     0.003 A 
ATOM     20  C   UNL     1      91.155 105.226  74.539  1.00  0.00     0.087 A 
ATOM     21  N   UNL     1      91.992 105.985  73.747  1.00  0.00    -0.361 N 
ATOM     22  C   UNL     1      93.057 108.282  73.973  1.00  0.00     0.027 A 
ATOM     23  C   UNL     1      87.823 107.819  78.945  1.00  0.00     0.106 C 
ATOM     24  H   UNL     1      92.349 105.701  72.845  1.00  0.00     0.166 HD
ENDBRANCH   5   7
ENDBRANCH   1   3
BRANCH   1  25
ATOM     25  C   UNL     1      90.053 108.631  84.610  1.00  0.00     0.180 C 
BRANCH  25  26
ATOM     26  O   UNL     1      89.053 109.443  85.212  1.00  0.00    -0.394 OA
ATOM     27  H   UNL     1      88.715 108.955  85.985  1.00  0.00     0.210 HD
ENDBRANCH  25  26
ENDBRANCH   1  25
TORSDOF 4
ENDMDL
MODEL 10
REMARK VINA RESULT:    -6.554      3.065      4.701
REMARK INTER + INTRA:          -8.138
REMARK INTER:                  -9.195
REMARK INTRA:                   1.057
REMARK UNBOUND:                -0.243
REMARK SMILES C[C@@H](CO)NC(=O)[C@@H]1C=C2c3cccc4[nH]cc(c34)C[C@H]2N(C)C1
REMARK SMILES IDX 2 1 1 2 5 3 7 4 6 5 8 7 24 8 9 9 22 10 10 11 21 12 11 13
REMARK SMILES IDX 20 14 19 15 12 16 18 17 15 18 13 19 17 20 16 21 14 22 23 23
REMARK SMILES IDX 3 25 4 26
REMARK H PARENT 5 6 16 24 4 27
ROOT
ATOM      1  C   UNL     1      93.315 110.406  72.498  1.00  0.00     0.104 C 
ATOM      2  C   UNL     1      92.239 111.474  72.300  1.00  0.00     0.033 C 
ENDROOT
BRANCH   1   3
ATOM      3  N   UNL     1      94.128 110.738  73.667  1.00  0.00    -0.351 N 
ATOM      4  O   UNL     1      94.629 111.855  75.527  1.00  0.00    -0.274 OA
ATOM      5  C   UNL     1      93.743 111.405  74.801  1.00  0.00     0.228 C 
ATOM      6  H   UNL     1      95.136 110.747  73.551  1.00  0.00     0.163 HD
BRANCH   5   7
ATOM      7  C   UNL     1      92.247 111.526  75.122  1.00  0.00     0.115 C 
ATOM      8  C   UNL     1      92.052 112.380  76.397  1.00  0.00     0.102 C 
ATOM      9  C   UNL     1      91.648 110.152  75.311  1.00  0.00    -0.007 C 
ATOM     10  N   UNL     1      90.670 112.395  76.918  1.00  0.00    -0.298 NA
ATOM     11  C   UNL     1      90.744 109.911  76.279  1.00  0.00    -0.026 C 
ATOM     12  C   UNL     1      90.206 111.017  77.229  1.00  0.00     0.091 C 
ATOM     13  C   UNL     1      90.279 108.540  76.586  1.00  0.00    -0.011 A 
ATOM     14  C   UNL     1      90.469 110.681  78.744  1.00  0.00     0.061 C 
ATOM     15  C   UNL     1      89.980 108.348  77.945  1.00  0.00     0.010 A 
ATOM     16  C   UNL     1      90.134 107.447  75.729  1.00  0.00     0.009 A 
ATOM     17  C   UNL     1      90.041 109.273  79.018  1.00  0.00    -0.020 A 
ATOM     18  C   UNL     1      89.554 107.125  78.432  1.00  0.00     0.046 A 
ATOM     19  C   UNL     1      89.697 106.211  76.229  1.00  0.00     0.003 A 
ATOM     20  C   UNL     1      89.655 108.598  80.153  1.00  0.00     0.087 A 
ATOM     21  N   UNL     1      89.364 107.300  79.786  1.00  0.00    -0.361 N 
ATOM     22  C   UNL     1      89.399 106.021  77.590  1.00  0.00     0.027 A 
ATOM     23  C   UNL     1      89.752 113.070  76.002  1.00  0.00     0.106 C 
ATOM     24  H   UNL     1      89.056 106.576  80.420  1.00  0.00     0.166 HD
ENDBRANCH   5   7
ENDBRANCH   1   3
BRANCH   1  25
ATOM     25  C   UNL     1      92.689 109.007  72.640  1.00  0.00     0.180 C 
BRANCH  25  26
ATOM     26  O   UNL     1      93.616 108.103  73.227  1.00  0.00    -0.394 OA
ATOM     27  H   UNL     1      94.342 108.636  73.596  1.00  0.00     0.210 HD
ENDBRANCH  25  26
ENDBRANCH   1  25
TORSDOF 4
ENDMDL
MODEL 11
REMARK VINA RESULT:    -6.547      4.003      6.924
REMARK INTER + INTRA:          -8.129
REMARK INTER:                  -9.531
REMARK INTRA:                   1.402
REMARK UNBOUND:                -0.243
REMARK SMILES C[C@@H](CO)NC(=O)[C@@H]1C=C2c3cccc4[nH]cc(c34)C[C@H]2N(C)C1
REMARK SMILES IDX 2 1 1 2 5 3 7 4 6 5 8 7 24 8 9 9 22 10 10 11 21 12 11 13
REMARK SMILES IDX 20 14 19 15 12 16 18 17 15 18 13 19 17 20 16 21 14 22 23 23
REMARK SMILES IDX 3 25 4 26
REMARK H PARENT 5 6 16 24 4 27
ROOT
ATOM      1  C   UNL     1      86.623 114.086  79.414  1.00  0.00     0.104 C 
ATOM      2  C   UNL     1      85.889 112.917  80.071  1.00  0.00     0.033 C 
ENDROOT
BRANCH   1   3
ATOM      3  N   UNL     1      87.739 114.504  80.261  1.00  0.00    -0.351 N 
ATOM      4  O   UNL     1      88.922 114.590  82.145  1.00  0.00    -0.274 OA
ATOM      5  C   UNL     1      88.180 113.925  81.422  1.00  0.00     0.228 C 
ATOM      6  H   UNL     1      88.061 115.462  80.173  1.00  0.00     0.163 HD
BRANCH   5   7
ATOM      7  C   UNL     1      87.760 112.484  81.742  1.00  0.00     0.115 C 
ATOM      8  C   UNL     1      88.138 112.140  83.202  1.00  0.00     0.102 C 
ATOM      9  C   UNL     1      88.430 111.527  80.784  1.00  0.00    -0.007 C 
ATOM     10  N   UNL     1      87.968 110.717  83.559  1.00  0.00    -0.298 NA
ATOM     11  C   UNL     1      88.916 110.345  81.204  1.00  0.00    -0.026 C 
ATOM     12  C   UNL     1      88.782 109.847  82.670  1.00  0.00     0.091 C 
ATOM     13  C   UNL     1      89.724 109.477  80.318  1.00  0.00    -0.011 A 
ATOM     14  C   UNL     1      90.180 109.549  83.328  1.00  0.00     0.061 C 
ATOM     15  C   UNL     1      90.707 108.746  81.006  1.00  0.00     0.010 A 
ATOM     16  C   UNL     1      89.651 109.322  78.932  1.00  0.00     0.009 A 
ATOM     17  C   UNL     1      90.999 108.715  82.392  1.00  0.00    -0.020 A 
ATOM     18  C   UNL     1      91.579 107.897  80.347  1.00  0.00     0.046 A 
ATOM     19  C   UNL     1      90.535 108.456  78.271  1.00  0.00     0.003 A 
ATOM     20  C   UNL     1      92.053 107.849  82.563  1.00  0.00     0.087 A 
ATOM     21  N   UNL     1      92.396 107.361  81.319  1.00  0.00    -0.361 N 
ATOM     22  C   UNL     1      91.519 107.726  78.961  1.00  0.00     0.027 A 
ATOM     23  C   UNL     1      86.561 110.319  83.547  1.00  0.00     0.106 C 
ATOM     24  H   UNL     1      93.143 106.703  81.141  1.00  0.00     0.166 HD
ENDBRANCH   5   7
ENDBRANCH   1   3
BRANCH   1  25
ATOM     25  C   UNL     1      87.111 113.713  78.002  1.00  0.00     0.180 C 
BRANCH  25  26
ATOM     26  O   UNL     1      87.864 114.778  77.437  1.00  0.00    -0.394 OA
ATOM     27  H   UNL     1      87.508 115.607  77.802  1.00  0.00     0.210 HD
ENDBRANCH  25  26
ENDBRANCH   1  25
TORSDOF 4
ENDMDL
MODEL 12
REMARK VINA RESULT:    -6.491      1.895      3.252
REMARK INTER + INTRA:          -8.062
REMARK INTER:                  -8.227
REMARK INTRA:                   0.165
REMARK UNBOUND:                -0.243
REMARK SMILES C[C@@H](CO)NC(=O)[C@@H]1C=C2c3cccc4[nH]cc(c34)C[C@H]2N(C)C1
REMARK SMILES IDX 2 1 1 2 5 3 7 4 6 5 8 7 24 8 9 9 22 10 10 11 21 12 11 13
REMARK SMILES IDX 20 14 19 15 12 16 18 17 15 18 13 19 17 20 16 21 14 22 23 23
REMARK SMILES IDX 3 25 4 26
REMARK H PARENT 5 6 16 24 4 27
ROOT
ATOM      1  C   UNL     1      90.843 105.723  73.690  1.00  0.00     0.104 C 
ATOM      2  C   UNL     1      91.137 106.819  72.666  1.00  0.00     0.033 C 
ENDROOT
BRANCH   1   3
ATOM      3  N   UNL     1      89.520 105.938  74.274  1.00  0.00    -0.351 N 
ATOM      4  O   UNL     1      88.092 106.454  75.902  1.00  0.00    -0.274 OA
ATOM      5  C   UNL     1      89.202 106.643  75.406  1.00  0.00     0.228 C 
ATOM      6  H   UNL     1      88.782 105.293  74.014  1.00  0.00     0.163 HD
BRANCH   5   7
ATOM      7  C   UNL     1      90.219 107.644  75.970  1.00  0.00     0.115 C 
ATOM      8  C   UNL     1      91.503 106.897  76.403  1.00  0.00     0.102 C 
ATOM      9  C   UNL     1      89.619 108.383  77.143  1.00  0.00    -0.007 C 
ATOM     10  N   UNL     1      92.472 107.726  77.148  1.00  0.00    -0.298 NA
ATOM     11  C   UNL     1      90.345 108.656  78.243  1.00  0.00    -0.026 C 
ATOM     12  C   UNL     1      91.851 108.293  78.374  1.00  0.00     0.091 C 
ATOM     13  C   UNL     1      89.728 109.223  79.462  1.00  0.00    -0.011 A 
ATOM     14  C   UNL     1      92.133 107.361  79.610  1.00  0.00     0.061 C 
ATOM     15  C   UNL     1      90.343 108.788  80.648  1.00  0.00     0.010 A 
ATOM     16  C   UNL     1      88.633 110.083  79.577  1.00  0.00     0.009 A 
ATOM     17  C   UNL     1      91.455 107.926  80.819  1.00  0.00    -0.020 A 
ATOM     18  C   UNL     1      89.892 109.189  81.893  1.00  0.00     0.046 A 
ATOM     19  C   UNL     1      88.184 110.489  80.842  1.00  0.00     0.003 A 
ATOM     20  C   UNL     1      91.666 107.806  82.173  1.00  0.00     0.087 A 
ATOM     21  N   UNL     1      90.715 108.574  82.812  1.00  0.00    -0.361 N 
ATOM     22  C   UNL     1      88.801 110.052  82.028  1.00  0.00     0.027 A 
ATOM     23  C   UNL     1      93.045 108.778  76.309  1.00  0.00     0.106 C 
ATOM     24  H   UNL     1      90.629 108.672  83.814  1.00  0.00     0.166 HD
ENDBRANCH   5   7
ENDBRANCH   1   3
BRANCH   1  25
ATOM     25  C   UNL     1      90.945 104.325  73.053  1.00  0.00     0.180 C 
BRANCH  25  26
ATOM     26  O   UNL     1      92.207 103.737  73.341  1.00  0.00    -0.394 OA
ATOM     27  H   UNL     1      92.744 104.414  73.788  1.00  0.00     0.210 HD
ENDBRANCH  25  26
ENDBRANCH   1  25
TORSDOF 4
ENDMDL
MODEL 13
REMARK VINA RESULT:    -6.381      2.748      4.200
REMARK INTER + INTRA:          -7.929
REMARK INTER:                  -7.521
REMARK INTRA:                  -0.408
REMARK UNBOUND:                -0.243
REMARK SMILES C[C@@H](CO)NC(=O)[C@@H]1C=C2c3cccc4[nH]cc(c34)C[C@H]2N(C)C1
REMARK SMILES IDX 2 1 1 2 5 3 7 4 6 5 8 7 24 8 9 9 22 10 10 11 21 12 11 13
REMARK SMILES IDX 20 14 19 15 12 16 18 17 15 18 13 19 17 20 16 21 14 22 23 23
REMARK SMILES IDX 3 25 4 26
REMARK H PARENT 5 6 16 24 4 27
ROOT
ATOM      1  C   UNL     1      91.483 105.965  72.073  1.00  0.00     0.104 C 
ATOM      2  C   UNL     1      91.515 107.334  71.394  1.00  0.00     0.033 C 
ENDROOT
BRANCH   1   3
ATOM      3  N   UNL     1      90.178 105.757  72.699  1.00  0.00    -0.351 N 
ATOM      4  O   UNL     1      88.799 105.113  74.324  1.00  0.00    -0.274 OA
ATOM      5  C   UNL     1      89.901 105.576  74.029  1.00  0.00     0.228 C 
ATOM      6  H   UNL     1      89.422 105.427  72.110  1.00  0.00     0.163 HD
BRANCH   5   7
ATOM      7  C   UNL     1      90.951 105.984  75.071  1.00  0.00     0.115 C 
ATOM      8  C   UNL     1      90.561 105.419  76.457  1.00  0.00     0.102 C 
ATOM      9  C   UNL     1      91.061 107.490  75.129  1.00  0.00    -0.007 C 
ATOM     10  N   UNL     1      91.386 105.917  77.576  1.00  0.00    -0.298 NA
ATOM     11  C   UNL     1      91.202 108.136  76.301  1.00  0.00    -0.026 C 
ATOM     12  C   UNL     1      91.319 107.400  77.664  1.00  0.00     0.091 C 
ATOM     13  C   UNL     1      91.138 109.612  76.389  1.00  0.00    -0.011 A 
ATOM     14  C   UNL     1      90.195 107.836  78.676  1.00  0.00     0.061 C 
ATOM     15  C   UNL     1      90.582 110.071  77.594  1.00  0.00     0.010 A 
ATOM     16  C   UNL     1      91.522 110.567  75.446  1.00  0.00     0.009 A 
ATOM     17  C   UNL     1      90.113 109.331  78.707  1.00  0.00    -0.020 A 
ATOM     18  C   UNL     1      90.415 111.421  77.852  1.00  0.00     0.046 A 
ATOM     19  C   UNL     1      91.354 111.934  75.716  1.00  0.00     0.003 A 
ATOM     20  C   UNL     1      89.659 110.240  79.634  1.00  0.00     0.087 A 
ATOM     21  N   UNL     1      89.846 111.501  79.105  1.00  0.00    -0.361 N 
ATOM     22  C   UNL     1      90.797 112.391  76.923  1.00  0.00     0.027 A 
ATOM     23  C   UNL     1      92.770 105.454  77.479  1.00  0.00     0.106 C 
ATOM     24  H   UNL     1      89.599 112.365  79.569  1.00  0.00     0.166 HD
ENDBRANCH   5   7
ENDBRANCH   1   3
BRANCH   1  25
ATOM     25  C   UNL     1      91.799 104.840  71.071  1.00  0.00     0.180 C 
BRANCH  25  26
ATOM     26  O   UNL     1      91.440 103.575  71.610  1.00  0.00    -0.394 OA
ATOM     27  H   UNL     1      92.098 103.358  72.295  1.00  0.00     0.210 HD
ENDBRANCH  25  26
ENDBRANCH   1  25
TORSDOF 4
ENDMDL
MODEL 14
REMARK VINA RESULT:    -6.370      4.056      5.960
REMARK INTER + INTRA:          -7.916
REMARK INTER:                  -7.574
REMARK INTRA:                  -0.342
REMARK UNBOUND:                -0.243
REMARK SMILES C[C@@H](CO)NC(=O)[C@@H]1C=C2c3cccc4[nH]cc(c34)C[C@H]2N(C)C1
REMARK SMILES IDX 2 1 1 2 5 3 7 4 6 5 8 7 24 8 9 9 22 10 10 11 21 12 11 13
REMARK SMILES IDX 20 14 19 15 12 16 18 17 15 18 13 19 17 20 16 21 14 22 23 23
REMARK SMILES IDX 3 25 4 26
REMARK H PARENT 5 6 16 24 4 27
ROOT
ATOM      1  C   UNL     1      91.113 103.765  72.427  1.00  0.00     0.104 C 
ATOM      2  C   UNL     1      91.535 104.441  71.124  1.00  0.00     0.033 C 
ENDROOT
BRANCH   1   3
ATOM      3  N   UNL     1      89.871 104.365  72.913  1.00  0.00    -0.351 N 
ATOM      4  O   UNL     1      88.476 105.142  74.464  1.00  0.00    -0.274 OA
ATOM      5  C   UNL     1      89.645 104.980  74.117  1.00  0.00     0.228 C 
ATOM      6  H   UNL     1      89.005 104.071  72.473  1.00  0.00     0.163 HD
BRANCH   5   7
ATOM      7  C   UNL     1      90.846 105.460  74.944  1.00  0.00     0.115 C 
ATOM      8  C   UNL     1      90.367 105.926  76.339  1.00  0.00     0.102 C 
ATOM      9  C   UNL     1      91.550 106.587  74.225  1.00  0.00    -0.007 C 
ATOM     10  N   UNL     1      91.403 106.598  77.148  1.00  0.00    -0.298 NA
ATOM     11  C   UNL     1      92.023 107.654  74.893  1.00  0.00    -0.026 C 
ATOM     12  C   UNL     1      91.939 107.790  76.439  1.00  0.00     0.091 C 
ATOM     13  C   UNL     1      92.559 108.840  74.188  1.00  0.00    -0.011 A 
ATOM     14  C   UNL     1      91.160 109.084  76.882  1.00  0.00     0.061 C 
ATOM     15  C   UNL     1      92.323 110.044  74.871  1.00  0.00     0.010 A 
ATOM     16  C   UNL     1      93.220 108.909  72.960  1.00  0.00     0.009 A 
ATOM     17  C   UNL     1      91.682 110.260  76.117  1.00  0.00    -0.020 A 
ATOM     18  C   UNL     1      92.727 111.264  74.358  1.00  0.00     0.046 A 
ATOM     19  C   UNL     1      93.630 110.149  72.448  1.00  0.00     0.003 A 
ATOM     20  C   UNL     1      91.698 111.616  76.347  1.00  0.00     0.087 A 
ATOM     21  N   UNL     1      92.331 112.213  75.277  1.00  0.00    -0.361 N 
ATOM     22  C   UNL     1      93.393 111.353  73.133  1.00  0.00     0.027 A 
ATOM     23  C   UNL     1      92.477 105.680  77.528  1.00  0.00     0.106 C 
ATOM     24  H   UNL     1      92.484 113.207  75.176  1.00  0.00     0.166 HD
ENDBRANCH   5   7
ENDBRANCH   1   3
BRANCH   1  25
ATOM     25  C   UNL     1      90.955 102.245  72.240  1.00  0.00     0.180 C 
BRANCH  25  26
ATOM     26  O   UNL     1      91.944 101.545  72.983  1.00  0.00    -0.394 OA
ATOM     27  H   UNL     1      92.811 101.884  72.698  1.00  0.00     0.210 HD
ENDBRANCH  25  26
ENDBRANCH   1  25
TORSDOF 4
ENDMDL
MODEL 15
REMARK VINA RESULT:    -6.276      2.725      4.501
REMARK INTER + INTRA:          -7.803
REMARK INTER:                  -7.735
REMARK INTRA:                  -0.068
REMARK UNBOUND:                -0.243
REMARK SMILES C[C@@H](CO)NC(=O)[C@@H]1C=C2c3cccc4[nH]cc(c34)C[C@H]2N(C)C1
REMARK SMILES IDX 2 1 1 2 5 3 7 4 6 5 8 7 24 8 9 9 22 10 10 11 21 12 11 13
REMARK SMILES IDX 20 14 19 15 12 16 18 17 15 18 13 19 17 20 16 21 14 22 23 23
REMARK SMILES IDX 3 25 4 26
REMARK H PARENT 5 6 16 24 4 27
ROOT
ATOM      1  C   UNL     1      93.052 109.809  72.775  1.00  0.00     0.104 C 
ATOM      2  C   UNL     1      92.623 111.265  72.596  1.00  0.00     0.033 C 
ENDROOT
BRANCH   1   3
ATOM      3  N   UNL     1      92.100 108.929  72.101  1.00  0.00    -0.351 N 
ATOM      4  O   UNL     1      91.235 106.963  71.513  1.00  0.00    -0.274 OA
ATOM      5  C   UNL     1      91.830 107.612  72.373  1.00  0.00     0.228 C 
ATOM      6  H   UNL     1      91.800 109.189  71.168  1.00  0.00     0.163 HD
BRANCH   5   7
ATOM      7  C   UNL     1      92.249 107.031  73.730  1.00  0.00     0.115 C 
ATOM      8  C   UNL     1      91.579 105.652  73.938  1.00  0.00     0.102 C 
ATOM      9  C   UNL     1      91.859 107.979  74.839  1.00  0.00    -0.007 C 
ATOM     10  N   UNL     1      91.744 105.090  75.294  1.00  0.00    -0.298 NA
ATOM     11  C   UNL     1      91.359 107.526  76.003  1.00  0.00    -0.026 C 
ATOM     12  C   UNL     1      91.195 106.013  76.321  1.00  0.00     0.091 C 
ATOM     13  C   UNL     1      90.814 108.445  77.027  1.00  0.00    -0.011 A 
ATOM     14  C   UNL     1      89.705 105.633  76.656  1.00  0.00     0.061 C 
ATOM     15  C   UNL     1      89.746 107.893  77.754  1.00  0.00     0.010 A 
ATOM     16  C   UNL     1      91.198 109.752  77.330  1.00  0.00     0.009 A 
ATOM     17  C   UNL     1      89.159 106.607  77.653  1.00  0.00    -0.020 A 
ATOM     18  C   UNL     1      89.088 108.609  78.739  1.00  0.00     0.046 A 
ATOM     19  C   UNL     1      90.530 110.470  78.333  1.00  0.00     0.003 A 
ATOM     20  C   UNL     1      88.142 106.554  78.578  1.00  0.00     0.087 A 
ATOM     21  N   UNL     1      88.108 107.771  79.228  1.00  0.00    -0.361 N 
ATOM     22  C   UNL     1      89.460 109.917  79.059  1.00  0.00     0.027 A 
ATOM     23  C   UNL     1      93.140 104.753  75.575  1.00  0.00     0.106 C 
ATOM     24  H   UNL     1      87.456 108.017  79.960  1.00  0.00     0.166 HD
ENDBRANCH   5   7
ENDBRANCH   1   3
BRANCH   1  25
ATOM     25  C   UNL     1      94.482 109.582  72.250  1.00  0.00     0.180 C 
BRANCH  25  26
ATOM     26  O   UNL     1      95.246 108.836  73.188  1.00  0.00    -0.394 OA
ATOM     27  H   UNL     1      94.657 108.156  73.561  1.00  0.00     0.210 HD
ENDBRANCH  25  26
ENDBRANCH   1  25
TORSDOF 4
ENDMDL
MODEL 16
REMARK VINA RESULT:    -6.175      4.012      5.995
REMARK INTER + INTRA:          -7.682
REMARK INTER:                  -8.771
REMARK INTRA:                   1.089
REMARK UNBOUND:                -0.243
REMARK SMILES C[C@@H](CO)NC(=O)[C@@H]1C=C2c3cccc4[nH]cc(c34)C[C@H]2N(C)C1
REMARK SMILES IDX 2 1 1 2 5 3 7 4 6 5 8 7 24 8 9 9 22 10 10 11 21 12 11 13
REMARK SMILES IDX 20 14 19 15 12 16 18 17 15 18 13 19 17 20 16 21 14 22 23 23
REMARK SMILES IDX 3 25 4 26
REMARK H PARENT 5 6 16 24 4 27
ROOT
ATOM      1  C   UNL     1      89.137 105.313  77.238  1.00  0.00     0.104 C 
ATOM      2  C   UNL     1      88.879 105.462  75.738  1.00  0.00     0.033 C 
ENDROOT
BRANCH   1   3
ATOM      3  N   UNL     1      90.563 105.098  77.472  1.00  0.00    -0.351 N 
ATOM      4  O   UNL     1      92.690 104.826  76.871  1.00  0.00    -0.274 OA
ATOM      5  C   UNL     1      91.607 105.353  76.620  1.00  0.00     0.228 C 
ATOM      6  H   UNL     1      90.826 104.443  78.201  1.00  0.00     0.163 HD
BRANCH   5   7
ATOM      7  C   UNL     1      91.383 106.297  75.431  1.00  0.00     0.115 C 
ATOM      8  C   UNL     1      92.631 106.293  74.517  1.00  0.00     0.102 C 
ATOM      9  C   UNL     1      91.098 107.695  75.929  1.00  0.00    -0.007 C 
ATOM     10  N   UNL     1      92.613 107.317  73.453  1.00  0.00    -0.298 NA
ATOM     11  C   UNL     1      91.617 108.775  75.315  1.00  0.00    -0.026 C 
ATOM     12  C   UNL     1      92.488 108.681  74.032  1.00  0.00     0.091 C 
ATOM     13  C   UNL     1      91.490 110.132  75.890  1.00  0.00    -0.011 A 
ATOM     14  C   UNL     1      93.911 109.323  74.230  1.00  0.00     0.061 C 
ATOM     15  C   UNL     1      92.594 110.956  75.612  1.00  0.00     0.010 A 
ATOM     16  C   UNL     1      90.460 110.667  76.666  1.00  0.00     0.009 A 
ATOM     17  C   UNL     1      93.761 110.672  74.860  1.00  0.00    -0.020 A 
ATOM     18  C   UNL     1      92.671 112.254  76.086  1.00  0.00     0.046 A 
ATOM     19  C   UNL     1      90.543 111.985  77.139  1.00  0.00     0.003 A 
ATOM     20  C   UNL     1      94.543 111.803  74.888  1.00  0.00     0.087 A 
ATOM     21  N   UNL     1      93.874 112.753  75.633  1.00  0.00    -0.361 N 
ATOM     22  C   UNL     1      91.649 112.808  76.861  1.00  0.00     0.027 A 
ATOM     23  C   UNL     1      91.562 107.060  72.469  1.00  0.00     0.106 C 
ATOM     24  H   UNL     1      94.216 113.685  75.823  1.00  0.00     0.166 HD
ENDBRANCH   5   7
ENDBRANCH   1   3
BRANCH   1  25
ATOM     25  C   UNL     1      88.628 106.541  78.014  1.00  0.00     0.180 C 
BRANCH  25  26
ATOM     26  O   UNL     1      89.471 106.814  79.126  1.00  0.00    -0.394 OA
ATOM     27  H   UNL     1      90.328 107.111  78.770  1.00  0.00     0.210 HD
ENDBRANCH  25  26
ENDBRANCH   1  25
TORSDOF 4
ENDMDL
MODEL 17
REMARK VINA RESULT:    -6.088      3.380      7.503
REMARK INTER + INTRA:          -7.576
REMARK INTER:                  -7.645
REMARK INTRA:                   0.069
REMARK UNBOUND:                -0.243
REMARK SMILES C[C@@H](CO)NC(=O)[C@@H]1C=C2c3cccc4[nH]cc(c34)C[C@H]2N(C)C1
REMARK SMILES IDX 2 1 1 2 5 3 7 4 6 5 8 7 24 8 9 9 22 10 10 11 21 12 11 13
REMARK SMILES IDX 20 14 19 15 12 16 18 17 15 18 13 19 17 20 16 21 14 22 23 23
REMARK SMILES IDX 3 25 4 26
REMARK H PARENT 5 6 16 24 4 27
ROOT
ATOM      1  C   UNL     1      90.039 110.983  79.455  1.00  0.00     0.104 C 
ATOM      2  C   UNL     1      89.521 109.545  79.427  1.00  0.00     0.033 C 
ENDROOT
BRANCH   1   3
ATOM      3  N   UNL     1      89.399 111.757  78.393  1.00  0.00    -0.351 N 
ATOM      4  O   UNL     1      89.350 113.178  76.680  1.00  0.00    -0.274 OA
ATOM      5  C   UNL     1      89.984 112.314  77.285  1.00  0.00     0.228 C 
ATOM      6  H   UNL     1      88.502 112.184  78.599  1.00  0.00     0.163 HD
BRANCH   5   7
ATOM      7  C   UNL     1      91.367 111.817  76.844  1.00  0.00     0.115 C 
ATOM      8  C   UNL     1      91.713 112.399  75.453  1.00  0.00     0.102 C 
ATOM      9  C   UNL     1      91.381 110.306  76.801  1.00  0.00    -0.007 C 
ATOM     10  N   UNL     1      92.927 111.828  74.836  1.00  0.00    -0.298 NA
ATOM     11  C   UNL     1      92.007 109.641  75.813  1.00  0.00    -0.026 C 
ATOM     12  C   UNL     1      92.802 110.355  74.684  1.00  0.00     0.091 C 
ATOM     13  C   UNL     1      91.885 108.174  75.663  1.00  0.00    -0.011 A 
ATOM     14  C   UNL     1      92.254 109.998  73.252  1.00  0.00     0.061 C 
ATOM     15  C   UNL     1      91.926 107.749  74.325  1.00  0.00     0.010 A 
ATOM     16  C   UNL     1      91.713 107.200  76.649  1.00  0.00     0.009 A 
ATOM     17  C   UNL     1      92.088 108.515  73.143  1.00  0.00    -0.020 A 
ATOM     18  C   UNL     1      91.802 106.415  73.980  1.00  0.00     0.046 A 
ATOM     19  C   UNL     1      91.592 105.849  76.292  1.00  0.00     0.003 A 
ATOM     20  C   UNL     1      92.056 107.635  72.086  1.00  0.00     0.087 A 
ATOM     21  N   UNL     1      91.881 106.368  72.604  1.00  0.00    -0.361 N 
ATOM     22  C   UNL     1      91.633 105.425  74.952  1.00  0.00     0.027 A 
ATOM     23  C   UNL     1      94.134 112.184  75.582  1.00  0.00     0.106 C 
ATOM     24  H   UNL     1      91.818 105.522  72.055  1.00  0.00     0.166 HD
ENDBRANCH   5   7
ENDBRANCH   1   3
BRANCH   1  25
ATOM     25  C   UNL     1      89.803 111.632  80.831  1.00  0.00     0.180 C 
BRANCH  25  26
ATOM     26  O   UNL     1      88.698 112.524  80.779  1.00  0.00    -0.394 OA
ATOM     27  H   UNL     1      88.096 112.196  80.087  1.00  0.00     0.210 HD
ENDBRANCH  25  26
ENDBRANCH   1  25
TORSDOF 4
ENDMDL
MODEL 18
REMARK VINA RESULT:    -6.040      3.933      5.041
REMARK INTER + INTRA:          -7.518
REMARK INTER:                  -7.669
REMARK INTRA:                   0.151
REMARK UNBOUND:                -0.243
REMARK SMILES C[C@@H](CO)NC(=O)[C@@H]1C=C2c3cccc4[nH]cc(c34)C[C@H]2N(C)C1
REMARK SMILES IDX 2 1 1 2 5 3 7 4 6 5 8 7 24 8 9 9 22 10 10 11 21 12 11 13
REMARK SMILES IDX 20 14 19 15 12 16 18 17 15 18 13 19 17 20 16 21 14 22 23 23
REMARK SMILES IDX 3 25 4 26
REMARK H PARENT 5 6 16 24 4 27
ROOT
ATOM      1  C   UNL     1      90.974 104.198  72.741  1.00  0.00     0.104 C 
ATOM      2  C   UNL     1      92.205 103.543  73.367  1.00  0.00     0.033 C 
ENDROOT
BRANCH   1   3
ATOM      3  N   UNL     1      91.378 105.377  71.978  1.00  0.00    -0.351 N 
ATOM      4  O   UNL     1      91.716 107.554  71.653  1.00  0.00    -0.274 OA
ATOM      5  C   UNL     1      91.704 106.620  72.455  1.00  0.00     0.228 C 
ATOM      6  H   UNL     1      91.135 105.405  70.993  1.00  0.00     0.163 HD
BRANCH   5   7
ATOM      7  C   UNL     1      92.066 106.777  73.938  1.00  0.00     0.115 C 
ATOM      8  C   UNL     1      90.794 106.628  74.806  1.00  0.00     0.102 C 
ATOM      9  C   UNL     1      92.709 108.124  74.172  1.00  0.00    -0.007 C 
ATOM     10  N   UNL     1      90.983 106.963  76.231  1.00  0.00    -0.298 NA
ATOM     11  C   UNL     1      92.423 108.854  75.266  1.00  0.00    -0.026 C 
ATOM     12  C   UNL     1      91.469 108.359  76.388  1.00  0.00     0.091 C 
ATOM     13  C   UNL     1      92.909 110.243  75.423  1.00  0.00    -0.011 A 
ATOM     14  C   UNL     1      90.257 109.337  76.615  1.00  0.00     0.061 C 
ATOM     15  C   UNL     1      92.018 111.065  76.133  1.00  0.00     0.010 A 
ATOM     16  C   UNL     1      94.087 110.822  74.947  1.00  0.00     0.009 A 
ATOM     17  C   UNL     1      90.768 110.740  76.718  1.00  0.00    -0.020 A 
ATOM     18  C   UNL     1      92.285 112.403  76.362  1.00  0.00     0.046 A 
ATOM     19  C   UNL     1      94.353 112.179  75.187  1.00  0.00     0.003 A 
ATOM     20  C   UNL     1      90.283 111.891  77.294  1.00  0.00     0.087 A 
ATOM     21  N   UNL     1      91.208 112.890  77.071  1.00  0.00    -0.361 N 
ATOM     22  C   UNL     1      93.460 113.000  75.897  1.00  0.00     0.027 A 
ATOM     23  C   UNL     1      91.873 106.013  76.899  1.00  0.00     0.106 C 
ATOM     24  H   UNL     1      91.112 113.847  77.382  1.00  0.00     0.166 HD
ENDBRANCH   5   7
ENDBRANCH   1   3
BRANCH   1  25
ATOM     25  C   UNL     1      90.206 103.202  71.854  1.00  0.00     0.180 C 
BRANCH  25  26
ATOM     26  O   UNL     1      91.108 102.432  71.071  1.00  0.00    -0.394 OA
ATOM     27  H   UNL     1      92.006 102.754  71.267  1.00  0.00     0.210 HD
ENDBRANCH  25  26
ENDBRANCH   1  25
TORSDOF 4
ENDMDL
MODEL 19
REMARK VINA RESULT:    -5.950      3.767      6.785
REMARK INTER + INTRA:          -7.410
REMARK INTER:                  -7.035
REMARK INTRA:                  -0.375
REMARK UNBOUND:                -0.243
REMARK SMILES C[C@@H](CO)NC(=O)[C@@H]1C=C2c3cccc4[nH]cc(c34)C[C@H]2N(C)C1
REMARK SMILES IDX 2 1 1 2 5 3 7 4 6 5 8 7 24 8 9 9 22 10 10 11 21 12 11 13
REMARK SMILES IDX 20 14 19 15 12 16 18 17 15 18 13 19 17 20 16 21 14 22 23 23
REMARK SMILES IDX 3 25 4 26
REMARK H PARENT 5 6 16 24 4 27
ROOT
ATOM      1  C   UNL     1      94.522 113.020  75.902  1.00  0.00     0.104 C 
ATOM      2  C   UNL     1      93.735 113.700  77.022  1.00  0.00     0.033 C 
ENDROOT
BRANCH   1   3
ATOM      3  N   UNL     1      93.700 112.951  74.695  1.00  0.00    -0.351 N 
ATOM      4  O   UNL     1      93.053 112.106  72.739  1.00  0.00    -0.274 OA
ATOM      5  C   UNL     1      93.526 111.883  73.853  1.00  0.00     0.228 C 
ATOM      6  H   UNL     1      93.447 113.825  74.248  1.00  0.00     0.163 HD
BRANCH   5   7
ATOM      7  C   UNL     1      93.894 110.477  74.348  1.00  0.00     0.115 C 
ATOM      8  C   UNL     1      93.978 109.505  73.148  1.00  0.00     0.102 C 
ATOM      9  C   UNL     1      92.865 109.996  75.345  1.00  0.00    -0.007 C 
ATOM     10  N   UNL     1      94.123 108.083  73.521  1.00  0.00    -0.298 NA
ATOM     11  C   UNL     1      92.435 108.721  75.345  1.00  0.00    -0.026 C 
ATOM     12  C   UNL     1      92.990 107.641  74.375  1.00  0.00     0.091 C 
ATOM     13  C   UNL     1      91.308 108.280  76.197  1.00  0.00    -0.011 A 
ATOM     14  C   UNL     1      91.858 106.997  73.491  1.00  0.00     0.061 C 
ATOM     15  C   UNL     1      90.538 107.261  75.613  1.00  0.00     0.010 A 
ATOM     16  C   UNL     1      90.916 108.753  77.451  1.00  0.00     0.009 A 
ATOM     17  C   UNL     1      90.709 106.608  74.367  1.00  0.00    -0.020 A 
ATOM     18  C   UNL     1      89.427 106.734  76.246  1.00  0.00     0.046 A 
ATOM     19  C   UNL     1      89.790 108.211  78.089  1.00  0.00     0.003 A 
ATOM     20  C   UNL     1      89.691 105.689  74.252  1.00  0.00     0.087 A 
ATOM     21  N   UNL     1      88.922 105.775  75.394  1.00  0.00    -0.361 N 
ATOM     22  C   UNL     1      89.020 107.191  77.502  1.00  0.00     0.027 A 
ATOM     23  C   UNL     1      95.408 107.820  74.167  1.00  0.00     0.106 C 
ATOM     24  H   UNL     1      88.101 105.216  75.581  1.00  0.00     0.166 HD
ENDBRANCH   5   7
ENDBRANCH   1   3
BRANCH   1  25
ATOM     25  C   UNL     1      95.846 113.756  75.627  1.00  0.00     0.180 C 
BRANCH  25  26
ATOM     26  O   UNL     1      96.914 113.145  76.338  1.00  0.00    -0.394 OA
ATOM     27  H   UNL     1      97.429 112.626  75.693  1.00  0.00     0.210 HD
ENDBRANCH  25  26
ENDBRANCH   1  25
TORSDOF 4
ENDMDL
MODEL 20
REMARK VINA RESULT:    -5.837      2.577      4.801
REMARK INTER + INTRA:          -7.274
REMARK INTER:                  -8.207
REMARK INTRA:                   0.933
REMARK UNBOUND:                -0.243
REMARK SMILES C[C@@H](CO)NC(=O)[C@@H]1C=C2c3cccc4[nH]cc(c34)C[C@H]2N(C)C1
REMARK SMILES IDX 2 1 1 2 5 3 7 4 6 5 8 7 24 8 9 9 22 10 10 11 21 12 11 13
REMARK SMILES IDX 20 14 19 15 12 16 18 17 15 18 13 19 17 20 16 21 14 22 23 23
REMARK SMILES IDX 3 25 4 26
REMARK H PARENT 5 6 16 24 4 27
ROOT
ATOM      1  C   UNL     1      92.680 110.197  74.717  1.00  0.00     0.104 C 
ATOM      2  C   UNL     1      91.435 110.936  75.207  1.00  0.00     0.033 C 
ENDROOT
BRANCH   1   3
ATOM      3  N   UNL     1      92.623 110.048  73.263  1.00  0.00    -0.351 N 
ATOM      4  O   UNL     1      92.957 109.000  71.327  1.00  0.00    -0.274 OA
ATOM      5  C   UNL     1      92.717 108.894  72.529  1.00  0.00     0.228 C 
ATOM      6  H   UNL     1      92.818 110.868  72.699  1.00  0.00     0.163 HD
BRANCH   5   7
ATOM      7  C   UNL     1      92.489 107.546  73.228  1.00  0.00     0.115 C 
ATOM      8  C   UNL     1      91.186 106.898  72.703  1.00  0.00     0.102 C 
ATOM      9  C   UNL     1      92.412 107.748  74.724  1.00  0.00    -0.007 C 
ATOM     10  N   UNL     1      90.757 105.698  73.449  1.00  0.00    -0.298 NA
ATOM     11  C   UNL     1      91.520 107.076  75.474  1.00  0.00    -0.026 C 
ATOM     12  C   UNL     1      90.550 106.013  74.887  1.00  0.00     0.091 C 
ATOM     13  C   UNL     1      91.317 107.388  76.907  1.00  0.00    -0.011 A 
ATOM     14  C   UNL     1      89.041 106.370  75.157  1.00  0.00     0.061 C 
ATOM     15  C   UNL     1      89.992 107.194  77.332  1.00  0.00     0.010 A 
ATOM     16  C   UNL     1      92.238 107.858  77.844  1.00  0.00     0.009 A 
ATOM     17  C   UNL     1      88.871 106.733  76.599  1.00  0.00    -0.020 A 
ATOM     18  C   UNL     1      89.599 107.456  78.633  1.00  0.00     0.046 A 
ATOM     19  C   UNL     1      91.833 108.117  79.162  1.00  0.00     0.003 A 
ATOM     20  C   UNL     1      87.800 106.723  77.463  1.00  0.00     0.087 A 
ATOM     21  N   UNL     1      88.253 107.164  78.690  1.00  0.00    -0.361 N 
ATOM     22  C   UNL     1      90.507 107.924  79.586  1.00  0.00     0.027 A 
ATOM     23  C   UNL     1      91.694 104.588  73.278  1.00  0.00     0.106 C 
ATOM     24  H   UNL     1      87.680 107.262  79.517  1.00  0.00     0.166 HD
ENDBRANCH   5   7
ENDBRANCH   1   3
BRANCH   1  25
ATOM     25  C   UNL     1      93.965 110.926  75.147  1.00  0.00     0.180 C 
BRANCH  25  26
ATOM     26  O   UNL     1      94.093 112.162  74.457  1.00  0.00    -0.394 OA
ATOM     27  H   UNL     1      93.392 112.187  73.782  1.00  0.00     0.210 HD
ENDBRANCH  25  26
ENDBRANCH   1  25
TORSDOF 4
ENDMDL
