MODEL 1
REMARK VINA RESULT:    -8.431      0.000      0.000
REMARK INTER + INTRA:         -10.618
REMARK INTER:                 -10.157
REMARK INTRA:                  -0.461
REMARK UNBOUND:                -0.461
REMARK SMILES C[C@@H](CO)NC(=O)[C@@H]1C=C2c3cccc4[nH]cc(c34)C[C@H]2N(C)C1
REMARK SMILES IDX 2 1 1 2 5 3 7 4 6 5 8 7 24 8 9 9 22 10 10 11 21 12 11 13
REMARK SMILES IDX 20 14 19 15 12 16 18 17 15 18 13 19 17 20 16 21 14 22 23 23
REMARK SMILES IDX 3 25 4 26
REMARK H PARENT 5 6 16 24 4 27
ROOT
ATOM      1  C   UNL     1      22.886 -27.231  88.914  1.00  0.00     0.104 C 
ATOM      2  C   UNL     1      24.076 -28.190  88.896  1.00  0.00     0.033 C 
ENDROOT
BRANCH   1   3
ATOM      3  N   UNL     1      21.647 -27.980  88.713  1.00  0.00    -0.351 N 
ATOM      4  O   UNL     1      19.452 -28.211  88.419  1.00  0.00    -0.274 OA
ATOM      5  C   UNL     1      20.451 -27.519  88.226  1.00  0.00     0.228 C 
ATOM      6  H   UNL     1      21.532 -28.845  89.230  1.00  0.00     0.163 HD
BRANCH   5   7
ATOM      7  C   UNL     1      20.425 -26.198  87.446  1.00  0.00     0.115 C 
ATOM      8  C   UNL     1      19.035 -25.534  87.587  1.00  0.00     0.102 C 
ATOM      9  C   UNL     1      20.742 -26.452  85.990  1.00  0.00    -0.007 C 
ATOM     10  N   UNL     1      18.825 -24.361  86.714  1.00  0.00    -0.298 NA
ATOM     11  C   UNL     1      20.083 -25.809  85.009  1.00  0.00    -0.026 C 
ATOM     12  C   UNL     1      19.001 -24.727  85.284  1.00  0.00     0.091 C 
ATOM     13  C   UNL     1      20.260 -26.171  83.585  1.00  0.00    -0.011 A 
ATOM     14  C   UNL     1      17.613 -25.096  84.640  1.00  0.00     0.061 C 
ATOM     15  C   UNL     1      19.095 -25.995  82.820  1.00  0.00     0.010 A 
ATOM     16  C   UNL     1      21.392 -26.673  82.939  1.00  0.00     0.009 A 
ATOM     17  C   UNL     1      17.824 -25.510  83.217  1.00  0.00    -0.020 A 
ATOM     18  C   UNL     1      19.056 -26.303  81.472  1.00  0.00     0.046 A 
ATOM     19  C   UNL     1      21.345 -26.979  81.571  1.00  0.00     0.003 A 
ATOM     20  C   UNL     1      17.019 -25.533  82.102  1.00  0.00     0.087 A 
ATOM     21  N   UNL     1      17.774 -26.016  81.053  1.00  0.00    -0.361 N 
ATOM     22  C   UNL     1      20.178 -26.803  80.807  1.00  0.00     0.027 A 
ATOM     23  C   UNL     1      19.693 -23.245  87.087  1.00  0.00     0.106 C 
ATOM     24  H   UNL     1      17.437 -26.144  80.109  1.00  0.00     0.166 HD
ENDBRANCH   5   7
ENDBRANCH   1   3
BRANCH   1  25
ATOM     25  C   UNL     1      22.839 -26.427  90.226  1.00  0.00     0.180 C 
BRANCH  25  26
ATOM     26  O   UNL     1      22.568 -25.057  89.963  1.00  0.00    -0.394 OA
ATOM     27  H   UNL     1      23.320 -24.709  89.451  1.00  0.00     0.210 HD
ENDBRANCH  25  26
ENDBRANCH   1  25
TORSDOF 4
ENDMDL
MODEL 2
REMARK VINA RESULT:    -8.079      3.396      6.594
REMARK INTER + INTRA:         -10.194
REMARK INTER:                  -9.704
REMARK INTRA:                  -0.490
REMARK UNBOUND:                -0.461
REMARK SMILES C[C@@H](CO)NC(=O)[C@@H]1C=C2c3cccc4[nH]cc(c34)C[C@H]2N(C)C1
REMARK SMILES IDX 2 1 1 2 5 3 7 4 6 5 8 7 24 8 9 9 22 10 10 11 21 12 11 13
REMARK SMILES IDX 20 14 19 15 12 16 18 17 15 18 13 19 17 20 16 21 14 22 23 23
REMARK SMILES IDX 3 25 4 26
REMARK H PARENT 5 6 16 24 4 27
ROOT
ATOM      1  C   UNL     1      25.915 -26.526  87.077  1.00  0.00     0.104 C 
ATOM      2  C   UNL     1      26.291 -27.896  87.641  1.00  0.00     0.033 C 
ENDROOT
BRANCH   1   3
ATOM      3  N   UNL     1      25.492 -25.645  88.164  1.00  0.00    -0.351 N 
ATOM      4  O   UNL     1      24.121 -24.226  89.194  1.00  0.00    -0.274 OA
ATOM      5  C   UNL     1      24.228 -25.190  88.438  1.00  0.00     0.228 C 
ATOM      6  H   UNL     1      26.202 -25.071  88.606  1.00  0.00     0.163 HD
BRANCH   5   7
ATOM      7  C   UNL     1      23.025 -25.917  87.821  1.00  0.00     0.115 C 
ATOM      8  C   UNL     1      21.874 -24.912  87.580  1.00  0.00     0.102 C 
ATOM      9  C   UNL     1      22.571 -27.030  88.736  1.00  0.00    -0.007 C 
ATOM     10  N   UNL     1      20.594 -25.532  87.181  1.00  0.00    -0.298 NA
ATOM     11  C   UNL     1      21.264 -27.282  88.934  1.00  0.00    -0.026 C 
ATOM     12  C   UNL     1      20.132 -26.502  88.208  1.00  0.00     0.091 C 
ATOM     13  C   UNL     1      20.804 -28.249  89.955  1.00  0.00    -0.011 A 
ATOM     14  C   UNL     1      19.148 -25.802  89.217  1.00  0.00     0.061 C 
ATOM     15  C   UNL     1      19.576 -27.896  90.539  1.00  0.00     0.010 A 
ATOM     16  C   UNL     1      21.429 -29.411  90.411  1.00  0.00     0.009 A 
ATOM     17  C   UNL     1      18.739 -26.784  90.269  1.00  0.00    -0.020 A 
ATOM     18  C   UNL     1      18.994 -28.664  91.532  1.00  0.00     0.046 A 
ATOM     19  C   UNL     1      20.830 -30.187  91.415  1.00  0.00     0.003 A 
ATOM     20  C   UNL     1      17.654 -26.884  91.109  1.00  0.00     0.087 A 
ATOM     21  N   UNL     1      17.819 -28.024  91.869  1.00  0.00    -0.361 N 
ATOM     22  C   UNL     1      19.602 -29.831  91.999  1.00  0.00     0.027 A 
ATOM     23  C   UNL     1      20.683 -26.158  85.861  1.00  0.00     0.106 C 
ATOM     24  H   UNL     1      17.173 -28.347  92.575  1.00  0.00     0.166 HD
ENDBRANCH   5   7
ENDBRANCH   1   3
BRANCH   1  25
ATOM     25  C   UNL     1      27.086 -25.909  86.290  1.00  0.00     0.180 C 
BRANCH  25  26
ATOM     26  O   UNL     1      27.836 -25.031  87.118  1.00  0.00    -0.394 OA
ATOM     27  H   UNL     1      28.291 -24.401  86.530  1.00  0.00     0.210 HD
ENDBRANCH  25  26
ENDBRANCH   1  25
TORSDOF 4
ENDMDL
MODEL 3
REMARK VINA RESULT:    -8.061      1.618      2.128
REMARK INTER + INTRA:         -10.172
REMARK INTER:                  -9.764
REMARK INTRA:                  -0.408
REMARK UNBOUND:                -0.461
REMARK SMILES C[C@@H](CO)NC(=O)[C@@H]1C=C2c3cccc4[nH]cc(c34)C[C@H]2N(C)C1
REMARK SMILES IDX 2 1 1 2 5 3 7 4 6 5 8 7 24 8 9 9 22 10 10 11 21 12 11 13
REMARK SMILES IDX 20 14 19 15 12 16 18 17 15 18 13 19 17 20 16 21 14 22 23 23
REMARK SMILES IDX 3 25 4 26
REMARK H PARENT 5 6 16 24 4 27
ROOT
ATOM      1  C   UNL     1      23.035 -25.313  88.259  1.00  0.00     0.104 C 
ATOM      2  C   UNL     1      24.140 -25.250  87.205  1.00  0.00     0.033 C 
ENDROOT
BRANCH   1   3
ATOM      3  N   UNL     1      22.173 -26.465  88.001  1.00  0.00    -0.351 N 
ATOM      4  O   UNL     1      20.227 -27.496  87.668  1.00  0.00    -0.274 OA
ATOM      5  C   UNL     1      20.886 -26.466  87.527  1.00  0.00     0.228 C 
ATOM      6  H   UNL     1      22.402 -27.337  88.465  1.00  0.00     0.163 HD
BRANCH   5   7
ATOM      7  C   UNL     1      20.350 -25.211  86.825  1.00  0.00     0.115 C 
ATOM      8  C   UNL     1      19.152 -24.638  87.618  1.00  0.00     0.102 C 
ATOM      9  C   UNL     1      19.934 -25.548  85.412  1.00  0.00    -0.007 C 
ATOM     10  N   UNL     1      18.426 -23.552  86.931  1.00  0.00    -0.298 NA
ATOM     11  C   UNL     1      18.818 -25.027  84.869  1.00  0.00    -0.026 C 
ATOM     12  C   UNL     1      17.911 -24.008  85.614  1.00  0.00     0.091 C 
ATOM     13  C   UNL     1      18.307 -25.480  83.556  1.00  0.00    -0.011 A 
ATOM     14  C   UNL     1      16.430 -24.521  85.754  1.00  0.00     0.061 C 
ATOM     15  C   UNL     1      16.906 -25.444  83.465  1.00  0.00     0.010 A 
ATOM     16  C   UNL     1      19.018 -25.946  82.448  1.00  0.00     0.009 A 
ATOM     17  C   UNL     1      15.954 -25.023  84.426  1.00  0.00    -0.020 A 
ATOM     18  C   UNL     1      16.239 -25.853  82.324  1.00  0.00     0.046 A 
ATOM     19  C   UNL     1      18.335 -26.355  81.293  1.00  0.00     0.003 A 
ATOM     20  C   UNL     1      14.711 -25.185  83.859  1.00  0.00     0.087 A 
ATOM     21  N   UNL     1      14.896 -25.689  82.588  1.00  0.00    -0.361 N 
ATOM     22  C   UNL     1      16.933 -26.319  81.204  1.00  0.00     0.027 A 
ATOM     23  C   UNL     1      19.250 -22.351  86.792  1.00  0.00     0.106 C 
ATOM     24  H   UNL     1      14.153 -25.909  81.940  1.00  0.00     0.166 HD
ENDBRANCH   5   7
ENDBRANCH   1   3
BRANCH   1  25
ATOM     25  C   UNL     1      23.626 -25.374  89.680  1.00  0.00     0.180 C 
BRANCH  25  26
ATOM     26  O   UNL     1      23.352 -24.171  90.386  1.00  0.00    -0.394 OA
ATOM     27  H   UNL     1      23.773 -24.250  91.261  1.00  0.00     0.210 HD
ENDBRANCH  25  26
ENDBRANCH   1  25
TORSDOF 4
ENDMDL
MODEL 4
REMARK VINA RESULT:    -7.917      3.130      7.066
REMARK INTER + INTRA:          -9.998
REMARK INTER:                  -9.727
REMARK INTRA:                  -0.270
REMARK UNBOUND:                -0.461
REMARK SMILES C[C@@H](CO)NC(=O)[C@@H]1C=C2c3cccc4[nH]cc(c34)C[C@H]2N(C)C1
REMARK SMILES IDX 2 1 1 2 5 3 7 4 6 5 8 7 24 8 9 9 22 10 10 11 21 12 11 13
REMARK SMILES IDX 20 14 19 15 12 16 18 17 15 18 13 19 17 20 16 21 14 22 23 23
REMARK SMILES IDX 3 25 4 26
REMARK H PARENT 5 6 16 24 4 27
ROOT
ATOM      1  C   UNL     1      18.506 -25.528  83.986  1.00  0.00     0.104 C 
ATOM      2  C   UNL     1      19.790 -26.032  83.327  1.00  0.00     0.033 C 
ENDROOT
BRANCH   1   3
ATOM      3  N   UNL     1      18.788 -24.312  84.748  1.00  0.00    -0.351 N 
ATOM      4  O   UNL     1      19.182 -23.133  86.595  1.00  0.00    -0.274 OA
ATOM      5  C   UNL     1      19.305 -24.211  86.013  1.00  0.00     0.228 C 
ATOM      6  H   UNL     1      18.312 -23.462  84.468  1.00  0.00     0.163 HD
BRANCH   5   7
ATOM      7  C   UNL     1      20.032 -25.419  86.620  1.00  0.00     0.115 C 
ATOM      8  C   UNL     1      19.683 -25.540  88.122  1.00  0.00     0.102 C 
ATOM      9  C   UNL     1      21.524 -25.269  86.436  1.00  0.00    -0.007 C 
ATOM     10  N   UNL     1      20.481 -26.541  88.857  1.00  0.00    -0.298 NA
ATOM     11  C   UNL     1      22.386 -25.614  87.410  1.00  0.00    -0.026 C 
ATOM     12  C   UNL     1      21.933 -26.237  88.760  1.00  0.00     0.091 C 
ATOM     13  C   UNL     1      23.832 -25.313  87.312  1.00  0.00    -0.011 A 
ATOM     14  C   UNL     1      22.395 -25.381  89.997  1.00  0.00     0.061 C 
ATOM     15  C   UNL     1      24.427 -25.043  88.556  1.00  0.00     0.010 A 
ATOM     16  C   UNL     1      24.641 -25.241  86.176  1.00  0.00     0.009 A 
ATOM     17  C   UNL     1      23.846 -25.044  89.849  1.00  0.00    -0.020 A 
ATOM     18  C   UNL     1      25.766 -24.716  88.667  1.00  0.00     0.046 A 
ATOM     19  C   UNL     1      25.999 -24.913  86.297  1.00  0.00     0.003 A 
ATOM     20  C   UNL     1      24.843 -24.711  90.737  1.00  0.00     0.087 A 
ATOM     21  N   UNL     1      25.999 -24.514  90.011  1.00  0.00    -0.361 N 
ATOM     22  C   UNL     1      26.593 -24.642  87.543  1.00  0.00     0.027 A 
ATOM     23  C   UNL     1      20.193 -27.903  88.406  1.00  0.00     0.106 C 
ATOM     24  H   UNL     1      26.893 -24.256  90.406  1.00  0.00     0.166 HD
ENDBRANCH   5   7
ENDBRANCH   1   3
BRANCH   1  25
ATOM     25  C   UNL     1      17.404 -25.281  82.940  1.00  0.00     0.180 C 
BRANCH  25  26
ATOM     26  O   UNL     1      17.745 -24.181  82.106  1.00  0.00    -0.394 OA
ATOM     27  H   UNL     1      18.181 -23.517  82.671  1.00  0.00     0.210 HD
ENDBRANCH  25  26
ENDBRANCH   1  25
TORSDOF 4
ENDMDL
MODEL 5
REMARK VINA RESULT:    -7.729      4.886      7.289
REMARK INTER + INTRA:          -9.772
REMARK INTER:                  -9.517
REMARK INTRA:                  -0.254
REMARK UNBOUND:                -0.461
REMARK SMILES C[C@@H](CO)NC(=O)[C@@H]1C=C2c3cccc4[nH]cc(c34)C[C@H]2N(C)C1
REMARK SMILES IDX 2 1 1 2 5 3 7 4 6 5 8 7 24 8 9 9 22 10 10 11 21 12 11 13
REMARK SMILES IDX 20 14 19 15 12 16 18 17 15 18 13 19 17 20 16 21 14 22 23 23
REMARK SMILES IDX 3 25 4 26
REMARK H PARENT 5 6 16 24 4 27
ROOT
ATOM      1  C   UNL     1      17.538 -28.878  91.853  1.00  0.00     0.104 C 
ATOM      2  C   UNL     1      16.653 -29.694  90.911  1.00  0.00     0.033 C 
ENDROOT
BRANCH   1   3
ATOM      3  N   UNL     1      17.672 -27.514  91.344  1.00  0.00    -0.351 N 
ATOM      4  O   UNL     1      18.788 -25.681  90.751  1.00  0.00    -0.274 OA
ATOM      5  C   UNL     1      18.793 -26.908  90.838  1.00  0.00     0.228 C 
ATOM      6  H   UNL     1      16.977 -26.834  91.635  1.00  0.00     0.163 HD
BRANCH   5   7
ATOM      7  C   UNL     1      19.968 -27.782  90.380  1.00  0.00     0.115 C 
ATOM      8  C   UNL     1      20.845 -28.160  91.597  1.00  0.00     0.102 C 
ATOM      9  C   UNL     1      20.788 -27.044  89.348  1.00  0.00    -0.007 C 
ATOM     10  N   UNL     1      22.117 -28.827  91.252  1.00  0.00    -0.298 NA
ATOM     11  C   UNL     1      22.133 -27.105  89.349  1.00  0.00    -0.026 C 
ATOM     12  C   UNL     1      22.939 -27.971  90.358  1.00  0.00     0.091 C 
ATOM     13  C   UNL     1      22.951 -26.254  88.458  1.00  0.00    -0.011 A 
ATOM     14  C   UNL     1      23.951 -27.112  91.204  1.00  0.00     0.061 C 
ATOM     15  C   UNL     1      24.181 -25.881  89.025  1.00  0.00     0.010 A 
ATOM     16  C   UNL     1      22.652 -25.773  87.182  1.00  0.00     0.009 A 
ATOM     17  C   UNL     1      24.730 -26.222  90.286  1.00  0.00    -0.020 A 
ATOM     18  C   UNL     1      25.075 -25.065  88.353  1.00  0.00     0.046 A 
ATOM     19  C   UNL     1      23.565 -24.950  86.506  1.00  0.00     0.003 A 
ATOM     20  C   UNL     1      25.955 -25.603  90.372  1.00  0.00     0.087 A 
ATOM     21  N   UNL     1      26.153 -24.906  89.198  1.00  0.00    -0.361 N 
ATOM     22  C   UNL     1      24.795 -24.577  87.075  1.00  0.00     0.027 A 
ATOM     23  C   UNL     1      21.894 -30.148  90.664  1.00  0.00     0.106 C 
ATOM     24  H   UNL     1      26.972 -24.353  88.985  1.00  0.00     0.166 HD
ENDBRANCH   5   7
ENDBRANCH   1   3
BRANCH   1  25
ATOM     25  C   UNL     1      16.974 -28.880  93.286  1.00  0.00     0.180 C 
BRANCH  25  26
ATOM     26  O   UNL     1      15.870 -27.989  93.389  1.00  0.00    -0.394 OA
ATOM     27  H   UNL     1      15.147 -28.478  93.821  1.00  0.00     0.210 HD
ENDBRANCH  25  26
ENDBRANCH   1  25
TORSDOF 4
ENDMDL
MODEL 6
REMARK VINA RESULT:    -7.643      3.768      6.491
REMARK INTER + INTRA:          -9.668
REMARK INTER:                  -9.228
REMARK INTRA:                  -0.440
REMARK UNBOUND:                -0.461
REMARK SMILES C[C@@H](CO)NC(=O)[C@@H]1C=C2c3cccc4[nH]cc(c34)C[C@H]2N(C)C1
REMARK SMILES IDX 2 1 1 2 5 3 7 4 6 5 8 7 24 8 9 9 22 10 10 11 21 12 11 13
REMARK SMILES IDX 20 14 19 15 12 16 18 17 15 18 13 19 17 20 16 21 14 22 23 23
REMARK SMILES IDX 3 25 4 26
REMARK H PARENT 5 6 16 24 4 27
ROOT
ATOM      1  C   UNL     1      27.178 -26.629  92.283  1.00  0.00     0.104 C 
ATOM      2  C   UNL     1      26.282 -27.543  93.120  1.00  0.00     0.033 C 
ENDROOT
BRANCH   1   3
ATOM      3  N   UNL     1      26.542 -25.322  92.131  1.00  0.00    -0.351 N 
ATOM      4  O   UNL     1      25.938 -23.487  91.023  1.00  0.00    -0.274 OA
ATOM      5  C   UNL     1      26.168 -24.695  90.971  1.00  0.00     0.228 C 
ATOM      6  H   UNL     1      26.626 -24.667  92.901  1.00  0.00     0.163 HD
BRANCH   5   7
ATOM      7  C   UNL     1      26.027 -25.526  89.688  1.00  0.00     0.115 C 
ATOM      8  C   UNL     1      25.997 -24.589  88.458  1.00  0.00     0.102 C 
ATOM      9  C   UNL     1      24.767 -26.357  89.749  1.00  0.00    -0.007 C 
ATOM     10  N   UNL     1      25.659 -25.259  87.186  1.00  0.00    -0.298 NA
ATOM     11  C   UNL     1      23.983 -26.519  88.666  1.00  0.00    -0.026 C 
ATOM     12  C   UNL     1      24.332 -25.924  87.273  1.00  0.00     0.091 C 
ATOM     13  C   UNL     1      22.664 -27.183  88.753  1.00  0.00    -0.011 A 
ATOM     14  C   UNL     1      23.205 -24.965  86.736  1.00  0.00     0.061 C 
ATOM     15  C   UNL     1      21.722 -26.662  87.849  1.00  0.00     0.010 A 
ATOM     16  C   UNL     1      22.247 -28.204  89.608  1.00  0.00     0.009 A 
ATOM     17  C   UNL     1      21.875 -25.637  86.883  1.00  0.00    -0.020 A 
ATOM     18  C   UNL     1      20.424 -27.137  87.796  1.00  0.00     0.046 A 
ATOM     19  C   UNL     1      20.930 -28.683  89.546  1.00  0.00     0.003 A 
ATOM     20  C   UNL     1      20.661 -25.493  86.253  1.00  0.00     0.087 A 
ATOM     21  N   UNL     1      19.790 -26.405  86.815  1.00  0.00    -0.361 N 
ATOM     22  C   UNL     1      19.989 -28.161  88.641  1.00  0.00     0.027 A 
ATOM     23  C   UNL     1      26.699 -26.203  86.777  1.00  0.00     0.106 C 
ATOM     24  H   UNL     1      18.823 -26.521  86.547  1.00  0.00     0.166 HD
ENDBRANCH   5   7
ENDBRANCH   1   3
BRANCH   1  25
ATOM     25  C   UNL     1      28.576 -26.493  92.913  1.00  0.00     0.180 C 
BRANCH  25  26
ATOM     26  O   UNL     1      28.813 -25.152  93.319  1.00  0.00    -0.394 OA
ATOM     27  H   UNL     1      28.226 -24.584  92.788  1.00  0.00     0.210 HD
ENDBRANCH  25  26
ENDBRANCH   1  25
TORSDOF 4
ENDMDL
MODEL 7
REMARK VINA RESULT:    -7.441      2.785      7.102
REMARK INTER + INTRA:          -9.425
REMARK INTER:                  -9.005
REMARK INTRA:                  -0.420
REMARK UNBOUND:                -0.461
REMARK SMILES C[C@@H](CO)NC(=O)[C@@H]1C=C2c3cccc4[nH]cc(c34)C[C@H]2N(C)C1
REMARK SMILES IDX 2 1 1 2 5 3 7 4 6 5 8 7 24 8 9 9 22 10 10 11 21 12 11 13
REMARK SMILES IDX 20 14 19 15 12 16 18 17 15 18 13 19 17 20 16 21 14 22 23 23
REMARK SMILES IDX 3 25 4 26
REMARK H PARENT 5 6 16 24 4 27
ROOT
ATOM      1  C   UNL     1      17.803 -25.335  85.702  1.00  0.00     0.104 C 
ATOM      2  C   UNL     1      18.780 -25.351  84.527  1.00  0.00     0.033 C 
ENDROOT
BRANCH   1   3
ATOM      3  N   UNL     1      18.220 -24.326  86.675  1.00  0.00    -0.351 N 
ATOM      4  O   UNL     1      18.997 -23.613  88.636  1.00  0.00    -0.274 OA
ATOM      5  C   UNL     1      19.012 -24.498  87.781  1.00  0.00     0.228 C 
ATOM      6  H   UNL     1      17.670 -23.477  86.736  1.00  0.00     0.163 HD
BRANCH   5   7
ATOM      7  C   UNL     1      19.890 -25.753  87.880  1.00  0.00     0.115 C 
ATOM      8  C   UNL     1      19.942 -26.241  89.347  1.00  0.00     0.102 C 
ATOM      9  C   UNL     1      21.282 -25.449  87.377  1.00  0.00    -0.007 C 
ATOM     10  N   UNL     1      20.919 -27.318  89.600  1.00  0.00    -0.298 NA
ATOM     11  C   UNL     1      22.372 -25.939  87.996  1.00  0.00    -0.026 C 
ATOM     12  C   UNL     1      22.292 -26.888  89.224  1.00  0.00     0.091 C 
ATOM     13  C   UNL     1      23.738 -25.512  87.621  1.00  0.00    -0.011 A 
ATOM     14  C   UNL     1      23.043 -26.304  90.478  1.00  0.00     0.061 C 
ATOM     15  C   UNL     1      24.628 -25.488  88.708  1.00  0.00     0.010 A 
ATOM     16  C   UNL     1      24.226 -25.119  86.373  1.00  0.00     0.009 A 
ATOM     17  C   UNL     1      24.401 -25.831  90.064  1.00  0.00    -0.020 A 
ATOM     18  C   UNL     1      25.946 -25.092  88.561  1.00  0.00     0.046 A 
ATOM     19  C   UNL     1      25.564 -24.723  86.231  1.00  0.00     0.003 A 
ATOM     20  C   UNL     1      25.586 -25.633  90.733  1.00  0.00     0.087 A 
ATOM     21  N   UNL     1      26.513 -25.185  89.814  1.00  0.00    -0.361 N 
ATOM     22  C   UNL     1      26.453 -24.699  87.320  1.00  0.00     0.027 A 
ATOM     23  C   UNL     1      20.548 -28.559  88.919  1.00  0.00     0.106 C 
ATOM     24  H   UNL     1      27.474 -24.956  90.027  1.00  0.00     0.166 HD
ENDBRANCH   5   7
ENDBRANCH   1   3
BRANCH   1  25
ATOM     25  C   UNL     1      16.362 -25.078  85.223  1.00  0.00     0.180 C 
BRANCH  25  26
ATOM     26  O   UNL     1      15.702 -26.305  84.946  1.00  0.00    -0.394 OA
ATOM     27  H   UNL     1      15.720 -26.832  85.765  1.00  0.00     0.210 HD
ENDBRANCH  25  26
ENDBRANCH   1  25
TORSDOF 4
ENDMDL
MODEL 8
REMARK VINA RESULT:    -7.436      2.056      2.910
REMARK INTER + INTRA:          -9.419
REMARK INTER:                  -9.016
REMARK INTRA:                  -0.403
REMARK UNBOUND:                -0.461
REMARK SMILES C[C@@H](CO)NC(=O)[C@@H]1C=C2c3cccc4[nH]cc(c34)C[C@H]2N(C)C1
REMARK SMILES IDX 2 1 1 2 5 3 7 4 6 5 8 7 24 8 9 9 22 10 10 11 21 12 11 13
REMARK SMILES IDX 20 14 19 15 12 16 18 17 15 18 13 19 17 20 16 21 14 22 23 23
REMARK SMILES IDX 3 25 4 26
REMARK H PARENT 5 6 16 24 4 27
ROOT
ATOM      1  C   UNL     1      24.798 -27.530  90.267  1.00  0.00     0.104 C 
ATOM      2  C   UNL     1      25.966 -27.601  89.283  1.00  0.00     0.033 C 
ENDROOT
BRANCH   1   3
ATOM      3  N   UNL     1      23.699 -28.365  89.787  1.00  0.00    -0.351 N 
ATOM      4  O   UNL     1      21.591 -28.792  89.209  1.00  0.00    -0.274 OA
ATOM      5  C   UNL     1      22.497 -27.960  89.267  1.00  0.00     0.228 C 
ATOM      6  H   UNL     1      23.663 -29.326  90.110  1.00  0.00     0.163 HD
BRANCH   5   7
ATOM      7  C   UNL     1      22.352 -26.519  88.760  1.00  0.00     0.115 C 
ATOM      8  C   UNL     1      21.342 -25.751  89.645  1.00  0.00     0.102 C 
ATOM      9  C   UNL     1      21.895 -26.523  87.320  1.00  0.00    -0.007 C 
ATOM     10  N   UNL     1      20.968 -24.418  89.131  1.00  0.00    -0.298 NA
ATOM     11  C   UNL     1      20.985 -25.638  86.873  1.00  0.00    -0.026 C 
ATOM     12  C   UNL     1      20.381 -24.521  87.769  1.00  0.00     0.091 C 
ATOM     13  C   UNL     1      20.402 -25.739  85.517  1.00  0.00    -0.011 A 
ATOM     14  C   UNL     1      18.812 -24.611  87.857  1.00  0.00     0.061 C 
ATOM     15  C   UNL     1      19.069 -25.298  85.453  1.00  0.00     0.010 A 
ATOM     16  C   UNL     1      20.981 -26.224  84.343  1.00  0.00     0.009 A 
ATOM     17  C   UNL     1      18.249 -24.766  86.479  1.00  0.00    -0.020 A 
ATOM     18  C   UNL     1      18.344 -25.337  84.275  1.00  0.00     0.046 A 
ATOM     19  C   UNL     1      20.242 -26.257  83.152  1.00  0.00     0.003 A 
ATOM     20  C   UNL     1      17.025 -24.491  85.913  1.00  0.00     0.087 A 
ATOM     21  N   UNL     1      17.095 -24.841  84.580  1.00  0.00    -0.361 N 
ATOM     22  C   UNL     1      18.908 -25.816  83.090  1.00  0.00     0.027 A 
ATOM     23  C   UNL     1      22.099 -23.491  89.152  1.00  0.00     0.106 C 
ATOM     24  H   UNL     1      16.337 -24.750  83.918  1.00  0.00     0.166 HD
ENDBRANCH   5   7
ENDBRANCH   1   3
BRANCH   1  25
ATOM     25  C   UNL     1      25.236 -27.952  91.681  1.00  0.00     0.180 C 
BRANCH  25  26
ATOM     26  O   UNL     1      26.633 -27.753  91.852  1.00  0.00    -0.394 OA
ATOM     27  H   UNL     1      26.747 -26.910  92.325  1.00  0.00     0.210 HD
ENDBRANCH  25  26
ENDBRANCH   1  25
TORSDOF 4
ENDMDL
MODEL 9
REMARK VINA RESULT:    -7.418      3.214      7.032
REMARK INTER + INTRA:          -9.396
REMARK INTER:                  -8.959
REMARK INTRA:                  -0.438
REMARK UNBOUND:                -0.461
REMARK SMILES C[C@@H](CO)NC(=O)[C@@H]1C=C2c3cccc4[nH]cc(c34)C[C@H]2N(C)C1
REMARK SMILES IDX 2 1 1 2 5 3 7 4 6 5 8 7 24 8 9 9 22 10 10 11 21 12 11 13
REMARK SMILES IDX 20 14 19 15 12 16 18 17 15 18 13 19 17 20 16 21 14 22 23 23
REMARK SMILES IDX 3 25 4 26
REMARK H PARENT 5 6 16 24 4 27
ROOT
ATOM      1  C   UNL     1      14.705 -25.844  84.127  1.00  0.00     0.104 C 
ATOM      2  C   UNL     1      14.314 -27.181  84.756  1.00  0.00     0.033 C 
ENDROOT
BRANCH   1   3
ATOM      3  N   UNL     1      15.968 -25.991  83.404  1.00  0.00    -0.351 N 
ATOM      4  O   UNL     1      18.016 -25.386  82.776  1.00  0.00    -0.274 OA
ATOM      5  C   UNL     1      17.165 -25.377  83.665  1.00  0.00     0.228 C 
ATOM      6  H   UNL     1      15.926 -26.344  82.455  1.00  0.00     0.163 HD
BRANCH   5   7
ATOM      7  C   UNL     1      17.394 -24.747  85.046  1.00  0.00     0.115 C 
ATOM      8  C   UNL     1      18.485 -23.654  84.949  1.00  0.00     0.102 C 
ATOM      9  C   UNL     1      17.801 -25.812  86.037  1.00  0.00    -0.007 C 
ATOM     10  N   UNL     1      18.935 -23.122  86.250  1.00  0.00    -0.298 NA
ATOM     11  C   UNL     1      18.756 -25.582  86.957  1.00  0.00    -0.026 C 
ATOM     12  C   UNL     1      19.468 -24.209  87.113  1.00  0.00     0.091 C 
ATOM     13  C   UNL     1      19.285 -26.664  87.818  1.00  0.00    -0.011 A 
ATOM     14  C   UNL     1      21.028 -24.324  86.944  1.00  0.00     0.061 C 
ATOM     15  C   UNL     1      20.642 -26.500  88.141  1.00  0.00     0.010 A 
ATOM     16  C   UNL     1      18.633 -27.797  88.306  1.00  0.00     0.009 A 
ATOM     17  C   UNL     1      21.532 -25.458  87.782  1.00  0.00    -0.020 A 
ATOM     18  C   UNL     1      21.322 -27.422  88.917  1.00  0.00     0.046 A 
ATOM     19  C   UNL     1      19.327 -28.726  89.096  1.00  0.00     0.003 A 
ATOM     20  C   UNL     1      22.752 -25.760  88.341  1.00  0.00     0.087 A 
ATOM     21  N   UNL     1      22.613 -26.951  89.024  1.00  0.00    -0.361 N 
ATOM     22  C   UNL     1      20.686 -28.561  89.418  1.00  0.00     0.027 A 
ATOM     23  C   UNL     1      17.874 -22.378  86.929  1.00  0.00     0.106 C 
ATOM     24  H   UNL     1      23.353 -27.416  89.531  1.00  0.00     0.166 HD
ENDBRANCH   5   7
ENDBRANCH   1   3
BRANCH   1  25
ATOM     25  C   UNL     1      13.595 -25.320  83.199  1.00  0.00     0.180 C 
BRANCH  25  26
ATOM     26  O   UNL     1      12.430 -26.128  83.307  1.00  0.00    -0.394 OA
ATOM     27  H   UNL     1      12.319 -26.586  82.455  1.00  0.00     0.210 HD
ENDBRANCH  25  26
ENDBRANCH   1  25
TORSDOF 4
ENDMDL
MODEL 10
REMARK VINA RESULT:    -7.360      4.137      6.732
REMARK INTER + INTRA:          -9.327
REMARK INTER:                  -8.933
REMARK INTRA:                  -0.394
REMARK UNBOUND:                -0.461
REMARK SMILES C[C@@H](CO)NC(=O)[C@@H]1C=C2c3cccc4[nH]cc(c34)C[C@H]2N(C)C1
REMARK SMILES IDX 2 1 1 2 5 3 7 4 6 5 8 7 24 8 9 9 22 10 10 11 21 12 11 13
REMARK SMILES IDX 20 14 19 15 12 16 18 17 15 18 13 19 17 20 16 21 14 22 23 23
REMARK SMILES IDX 3 25 4 26
REMARK H PARENT 5 6 16 24 4 27
ROOT
ATOM      1  C   UNL     1      17.792 -28.923  91.384  1.00  0.00     0.104 C 
ATOM      2  C   UNL     1      17.478 -28.762  92.871  1.00  0.00     0.033 C 
ENDROOT
BRANCH   1   3
ATOM      3  N   UNL     1      19.139 -29.468  91.221  1.00  0.00    -0.351 N 
ATOM      4  O   UNL     1      21.116 -29.699  90.223  1.00  0.00    -0.274 OA
ATOM      5  C   UNL     1      20.174 -28.951  90.486  1.00  0.00     0.228 C 
ATOM      6  H   UNL     1      19.273 -30.454  91.417  1.00  0.00     0.163 HD
BRANCH   5   7
ATOM      7  C   UNL     1      20.124 -27.477  90.062  1.00  0.00     0.115 C 
ATOM      8  C   UNL     1      19.833 -27.377  88.546  1.00  0.00     0.102 C 
ATOM      9  C   UNL     1      21.434 -26.800  90.393  1.00  0.00    -0.007 C 
ATOM     10  N   UNL     1      19.964 -26.018  87.986  1.00  0.00    -0.298 NA
ATOM     11  C   UNL     1      21.996 -25.916  89.549  1.00  0.00    -0.026 C 
ATOM     12  C   UNL     1      21.330 -25.479  88.214  1.00  0.00     0.091 C 
ATOM     13  C   UNL     1      23.356 -25.378  89.778  1.00  0.00    -0.011 A 
ATOM     14  C   UNL     1      22.247 -25.771  86.968  1.00  0.00     0.061 C 
ATOM     15  C   UNL     1      24.053 -25.113  88.587  1.00  0.00     0.010 A 
ATOM     16  C   UNL     1      24.015 -25.137  90.984  1.00  0.00     0.009 A 
ATOM     17  C   UNL     1      23.629 -25.266  87.244  1.00  0.00    -0.020 A 
ATOM     18  C   UNL     1      25.349 -24.628  88.595  1.00  0.00     0.046 A 
ATOM     19  C   UNL     1      25.328 -24.641  90.984  1.00  0.00     0.003 A 
ATOM     20  C   UNL     1      24.678 -24.877  86.444  1.00  0.00     0.087 A 
ATOM     21  N   UNL     1      25.713 -24.494  87.272  1.00  0.00    -0.361 N 
ATOM     22  C   UNL     1      26.025 -24.377  89.792  1.00  0.00     0.027 A 
ATOM     23  C   UNL     1      18.942 -25.113  88.513  1.00  0.00     0.106 C 
ATOM     24  H   UNL     1      26.614 -24.163  86.956  1.00  0.00     0.166 HD
ENDBRANCH   5   7
ENDBRANCH   1   3
BRANCH   1  25
ATOM     25  C   UNL     1      16.747 -29.816  90.689  1.00  0.00     0.180 C 
BRANCH  25  26
ATOM     26  O   UNL     1      15.556 -29.084  90.432  1.00  0.00    -0.394 OA
ATOM     27  H   UNL     1      15.186 -29.423  89.597  1.00  0.00     0.210 HD
ENDBRANCH  25  26
ENDBRANCH   1  25
TORSDOF 4
ENDMDL
MODEL 11
REMARK VINA RESULT:    -7.358      4.358      6.515
REMARK INTER + INTRA:          -9.325
REMARK INTER:                  -8.852
REMARK INTRA:                  -0.472
REMARK UNBOUND:                -0.461
REMARK SMILES C[C@@H](CO)NC(=O)[C@@H]1C=C2c3cccc4[nH]cc(c34)C[C@H]2N(C)C1
REMARK SMILES IDX 2 1 1 2 5 3 7 4 6 5 8 7 24 8 9 9 22 10 10 11 21 12 11 13
REMARK SMILES IDX 20 14 19 15 12 16 18 17 15 18 13 19 17 20 16 21 14 22 23 23
REMARK SMILES IDX 3 25 4 26
REMARK H PARENT 5 6 16 24 4 27
ROOT
ATOM      1  C   UNL     1      18.014 -28.385  91.865  1.00  0.00     0.104 C 
ATOM      2  C   UNL     1      19.075 -28.884  92.846  1.00  0.00     0.033 C 
ENDROOT
BRANCH   1   3
ATOM      3  N   UNL     1      18.309 -28.887  90.524  1.00  0.00    -0.351 N 
ATOM      4  O   UNL     1      18.713 -28.701  88.342  1.00  0.00    -0.274 OA
ATOM      5  C   UNL     1      18.825 -28.195  89.458  1.00  0.00     0.228 C 
ATOM      6  H   UNL     1      17.843 -29.738  90.229  1.00  0.00     0.163 HD
BRANCH   5   7
ATOM      7  C   UNL     1      19.535 -26.859  89.712  1.00  0.00     0.115 C 
ATOM      8  C   UNL     1      19.362 -25.933  88.485  1.00  0.00     0.102 C 
ATOM      9  C   UNL     1      21.001 -27.099  89.988  1.00  0.00    -0.007 C 
ATOM     10  N   UNL     1      20.174 -24.700  88.530  1.00  0.00    -0.298 NA
ATOM     11  C   UNL     1      21.949 -26.286  89.487  1.00  0.00    -0.026 C 
ATOM     12  C   UNL     1      21.621 -25.022  88.645  1.00  0.00     0.091 C 
ATOM     13  C   UNL     1      23.390 -26.605  89.604  1.00  0.00    -0.011 A 
ATOM     14  C   UNL     1      22.286 -25.066  87.219  1.00  0.00     0.061 C 
ATOM     15  C   UNL     1      24.147 -26.157  88.509  1.00  0.00     0.010 A 
ATOM     16  C   UNL     1      24.059 -27.294  90.617  1.00  0.00     0.009 A 
ATOM     17  C   UNL     1      23.728 -25.443  87.359  1.00  0.00    -0.020 A 
ATOM     18  C   UNL     1      25.509 -26.382  88.424  1.00  0.00     0.046 A 
ATOM     19  C   UNL     1      25.441 -27.516  90.527  1.00  0.00     0.003 A 
ATOM     20  C   UNL     1      24.844 -25.245  86.580  1.00  0.00     0.087 A 
ATOM     21  N   UNL     1      25.915 -25.818  87.234  1.00  0.00    -0.361 N 
ATOM     22  C   UNL     1      26.197 -27.067  89.429  1.00  0.00     0.027 A 
ATOM     23  C   UNL     1      19.743 -23.804  89.602  1.00  0.00     0.106 C 
ATOM     24  H   UNL     1      26.865 -25.827  86.889  1.00  0.00     0.166 HD
ENDBRANCH   5   7
ENDBRANCH   1   3
BRANCH   1  25
ATOM     25  C   UNL     1      16.602 -28.802  92.313  1.00  0.00     0.180 C 
BRANCH  25  26
ATOM     26  O   UNL     1      16.186 -28.034  93.435  1.00  0.00    -0.394 OA
ATOM     27  H   UNL     1      15.888 -28.662  94.117  1.00  0.00     0.210 HD
ENDBRANCH  25  26
ENDBRANCH   1  25
TORSDOF 4
ENDMDL
MODEL 12
REMARK VINA RESULT:    -7.292      5.289      7.070
REMARK INTER + INTRA:          -9.245
REMARK INTER:                  -8.966
REMARK INTRA:                  -0.279
REMARK UNBOUND:                -0.461
REMARK SMILES C[C@@H](CO)NC(=O)[C@@H]1C=C2c3cccc4[nH]cc(c34)C[C@H]2N(C)C1
REMARK SMILES IDX 2 1 1 2 5 3 7 4 6 5 8 7 24 8 9 9 22 10 10 11 21 12 11 13
REMARK SMILES IDX 20 14 19 15 12 16 18 17 15 18 13 19 17 20 16 21 14 22 23 23
REMARK SMILES IDX 3 25 4 26
REMARK H PARENT 5 6 16 24 4 27
ROOT
ATOM      1  C   UNL     1      27.913 -26.031  92.999  1.00  0.00     0.104 C 
ATOM      2  C   UNL     1      28.492 -27.159  92.145  1.00  0.00     0.033 C 
ENDROOT
BRANCH   1   3
ATOM      3  N   UNL     1      26.660 -26.470  93.611  1.00  0.00    -0.351 N 
ATOM      4  O   UNL     1      24.452 -26.499  93.893  1.00  0.00    -0.274 OA
ATOM      5  C   UNL     1      25.390 -26.356  93.109  1.00  0.00     0.228 C 
ATOM      6  H   UNL     1      26.655 -26.619  94.615  1.00  0.00     0.163 HD
BRANCH   5   7
ATOM      7  C   UNL     1      25.203 -26.091  91.609  1.00  0.00     0.115 C 
ATOM      8  C   UNL     1      25.064 -24.570  91.359  1.00  0.00     0.102 C 
ATOM      9  C   UNL     1      23.981 -26.822  91.105  1.00  0.00    -0.007 C 
ATOM     10  N   UNL     1      24.675 -24.210  89.981  1.00  0.00    -0.298 NA
ATOM     11  C   UNL     1      23.141 -26.252  90.221  1.00  0.00    -0.026 C 
ATOM     12  C   UNL     1      23.382 -24.843  89.612  1.00  0.00     0.091 C 
ATOM     13  C   UNL     1      21.854 -26.884  89.852  1.00  0.00    -0.011 A 
ATOM     14  C   UNL     1      22.189 -23.857  89.900  1.00  0.00     0.061 C 
ATOM     15  C   UNL     1      20.841 -25.952  89.569  1.00  0.00     0.010 A 
ATOM     16  C   UNL     1      21.529 -28.240  89.779  1.00  0.00     0.009 A 
ATOM     17  C   UNL     1      20.897 -24.536  89.569  1.00  0.00    -0.020 A 
ATOM     18  C   UNL     1      19.561 -26.350  89.228  1.00  0.00     0.046 A 
ATOM     19  C   UNL     1      20.229 -28.635  89.428  1.00  0.00     0.003 A 
ATOM     20  C   UNL     1      19.642 -24.084  89.232  1.00  0.00     0.087 A 
ATOM     21  N   UNL     1      18.842 -25.190  89.029  1.00  0.00    -0.361 N 
ATOM     22  C   UNL     1      19.216 -27.701  89.146  1.00  0.00     0.027 A 
ATOM     23  C   UNL     1      25.723 -24.543  89.017  1.00  0.00     0.106 C 
ATOM     24  H   UNL     1      17.866 -25.158  88.772  1.00  0.00     0.166 HD
ENDBRANCH   5   7
ENDBRANCH   1   3
BRANCH   1  25
ATOM     25  C   UNL     1      28.919 -25.570  94.069  1.00  0.00     0.180 C 
BRANCH  25  26
ATOM     26  O   UNL     1      29.160 -24.174  93.960  1.00  0.00    -0.394 OA
ATOM     27  H   UNL     1      28.322 -23.759  93.687  1.00  0.00     0.210 HD
ENDBRANCH  25  26
ENDBRANCH   1  25
TORSDOF 4
ENDMDL
MODEL 13
REMARK VINA RESULT:    -7.248      2.917      7.291
REMARK INTER + INTRA:          -9.192
REMARK INTER:                  -8.954
REMARK INTRA:                  -0.238
REMARK UNBOUND:                -0.461
REMARK SMILES C[C@@H](CO)NC(=O)[C@@H]1C=C2c3cccc4[nH]cc(c34)C[C@H]2N(C)C1
REMARK SMILES IDX 2 1 1 2 5 3 7 4 6 5 8 7 24 8 9 9 22 10 10 11 21 12 11 13
REMARK SMILES IDX 20 14 19 15 12 16 18 17 15 18 13 19 17 20 16 21 14 22 23 23
REMARK SMILES IDX 3 25 4 26
REMARK H PARENT 5 6 16 24 4 27
ROOT
ATOM      1  C   UNL     1      18.008 -24.425  86.055  1.00  0.00     0.104 C 
ATOM      2  C   UNL     1      16.531 -24.627  85.715  1.00  0.00     0.033 C 
ENDROOT
BRANCH   1   3
ATOM      3  N   UNL     1      18.825 -25.349  85.269  1.00  0.00    -0.351 N 
ATOM      4  O   UNL     1      20.731 -26.212  84.511  1.00  0.00    -0.274 OA
ATOM      5  C   UNL     1      20.147 -25.663  85.444  1.00  0.00     0.228 C 
ATOM      6  H   UNL     1      18.504 -25.580  84.335  1.00  0.00     0.163 HD
BRANCH   5   7
ATOM      7  C   UNL     1      20.816 -25.348  86.789  1.00  0.00     0.115 C 
ATOM      8  C   UNL     1      22.348 -25.519  86.666  1.00  0.00     0.102 C 
ATOM      9  C   UNL     1      20.269 -26.260  87.863  1.00  0.00    -0.007 C 
ATOM     10  N   UNL     1      23.078 -25.442  87.947  1.00  0.00    -0.298 NA
ATOM     11  C   UNL     1      21.071 -26.792  88.803  1.00  0.00    -0.026 C 
ATOM     12  C   UNL     1      22.589 -26.475  88.898  1.00  0.00     0.091 C 
ATOM     13  C   UNL     1      20.583 -27.818  89.752  1.00  0.00    -0.011 A 
ATOM     14  C   UNL     1      23.476 -27.771  88.800  1.00  0.00     0.061 C 
ATOM     15  C   UNL     1      21.572 -28.748  90.117  1.00  0.00     0.010 A 
ATOM     16  C   UNL     1      19.305 -27.987  90.286  1.00  0.00     0.009 A 
ATOM     17  C   UNL     1      22.933 -28.812  89.728  1.00  0.00    -0.020 A 
ATOM     18  C   UNL     1      21.302 -29.798  90.977  1.00  0.00     0.046 A 
ATOM     19  C   UNL     1      19.039 -29.051  91.160  1.00  0.00     0.003 A 
ATOM     20  C   UNL     1      23.478 -29.910  90.353  1.00  0.00     0.087 A 
ATOM     21  N   UNL     1      22.482 -30.498  91.105  1.00  0.00    -0.361 N 
ATOM     22  C   UNL     1      20.029 -29.980  91.525  1.00  0.00     0.027 A 
ATOM     23  C   UNL     1      23.006 -24.104  88.534  1.00  0.00     0.106 C 
ATOM     24  H   UNL     1      22.598 -31.328  91.670  1.00  0.00     0.166 HD
ENDBRANCH   5   7
ENDBRANCH   1   3
BRANCH   1  25
ATOM     25  C   UNL     1      18.438 -22.967  85.816  1.00  0.00     0.180 C 
BRANCH  25  26
ATOM     26  O   UNL     1      18.112 -22.159  86.940  1.00  0.00    -0.394 OA
ATOM     27  H   UNL     1      18.324 -21.239  86.703  1.00  0.00     0.210 HD
ENDBRANCH  25  26
ENDBRANCH   1  25
TORSDOF 4
ENDMDL
MODEL 14
REMARK VINA RESULT:    -7.092      3.289      6.242
REMARK INTER + INTRA:          -9.004
REMARK INTER:                  -9.222
REMARK INTRA:                   0.218
REMARK UNBOUND:                -0.461
REMARK SMILES C[C@@H](CO)NC(=O)[C@@H]1C=C2c3cccc4[nH]cc(c34)C[C@H]2N(C)C1
REMARK SMILES IDX 2 1 1 2 5 3 7 4 6 5 8 7 24 8 9 9 22 10 10 11 21 12 11 13
REMARK SMILES IDX 20 14 19 15 12 16 18 17 15 18 13 19 17 20 16 21 14 22 23 23
REMARK SMILES IDX 3 25 4 26
REMARK H PARENT 5 6 16 24 4 27
ROOT
ATOM      1  C   UNL     1      23.619 -24.800  89.850  1.00  0.00     0.104 C 
ATOM      2  C   UNL     1      22.554 -23.715  90.005  1.00  0.00     0.033 C 
ENDROOT
BRANCH   1   3
ATOM      3  N   UNL     1      24.483 -24.483  88.714  1.00  0.00    -0.351 N 
ATOM      4  O   UNL     1      25.431 -24.854  86.734  1.00  0.00    -0.274 OA
ATOM      5  C   UNL     1      24.443 -25.014  87.450  1.00  0.00     0.228 C 
ATOM      6  H   UNL     1      25.379 -24.052  88.912  1.00  0.00     0.163 HD
BRANCH   5   7
ATOM      7  C   UNL     1      23.173 -25.741  86.988  1.00  0.00     0.115 C 
ATOM      8  C   UNL     1      22.021 -24.724  86.814  1.00  0.00     0.102 C 
ATOM      9  C   UNL     1      22.793 -26.803  87.993  1.00  0.00    -0.007 C 
ATOM     10  N   UNL     1      20.698 -25.334  86.571  1.00  0.00    -0.298 NA
ATOM     11  C   UNL     1      21.507 -27.019  88.329  1.00  0.00    -0.026 C 
ATOM     12  C   UNL     1      20.323 -26.248  87.682  1.00  0.00     0.091 C 
ATOM     13  C   UNL     1      21.134 -27.931  89.433  1.00  0.00    -0.011 A 
ATOM     14  C   UNL     1      19.455 -25.483  88.749  1.00  0.00     0.061 C 
ATOM     15  C   UNL     1      19.976 -27.526  90.118  1.00  0.00     0.010 A 
ATOM     16  C   UNL     1      21.782 -29.084  89.879  1.00  0.00     0.009 A 
ATOM     17  C   UNL     1      19.135 -26.410  89.880  1.00  0.00    -0.020 A 
ATOM     18  C   UNL     1      19.482 -28.237  91.197  1.00  0.00     0.046 A 
ATOM     19  C   UNL     1      21.272 -29.802  90.971  1.00  0.00     0.003 A 
ATOM     20  C   UNL     1      18.137 -26.450  90.825  1.00  0.00     0.087 A 
ATOM     21  N   UNL     1      18.357 -27.559  91.617  1.00  0.00    -0.361 N 
ATOM     22  C   UNL     1      20.113 -29.395  91.655  1.00  0.00     0.027 A 
ATOM     23  C   UNL     1      20.645 -26.019  85.280  1.00  0.00     0.106 C 
ATOM     24  H   UNL     1      17.778 -27.836  92.397  1.00  0.00     0.166 HD
ENDBRANCH   5   7
ENDBRANCH   1   3
BRANCH   1  25
ATOM     25  C   UNL     1      24.442 -24.959  91.142  1.00  0.00     0.180 C 
BRANCH  25  26
ATOM     26  O   UNL     1      25.332 -23.863  91.305  1.00  0.00    -0.394 OA
ATOM     27  H   UNL     1      25.982 -24.121  91.983  1.00  0.00     0.210 HD
ENDBRANCH  25  26
ENDBRANCH   1  25
TORSDOF 4
ENDMDL
MODEL 15
REMARK VINA RESULT:    -7.071      4.043      6.911
REMARK INTER + INTRA:          -8.979
REMARK INTER:                  -9.118
REMARK INTRA:                   0.139
REMARK UNBOUND:                -0.461
REMARK SMILES C[C@@H](CO)NC(=O)[C@@H]1C=C2c3cccc4[nH]cc(c34)C[C@H]2N(C)C1
REMARK SMILES IDX 2 1 1 2 5 3 7 4 6 5 8 7 24 8 9 9 22 10 10 11 21 12 11 13
REMARK SMILES IDX 20 14 19 15 12 16 18 17 15 18 13 19 17 20 16 21 14 22 23 23
REMARK SMILES IDX 3 25 4 26
REMARK H PARENT 5 6 16 24 4 27
ROOT
ATOM      1  C   UNL     1      20.223 -24.906  88.490  1.00  0.00     0.104 C 
ATOM      2  C   UNL     1      20.236 -24.182  89.836  1.00  0.00     0.033 C 
ENDROOT
BRANCH   1   3
ATOM      3  N   UNL     1      19.109 -25.853  88.451  1.00  0.00    -0.351 N 
ATOM      4  O   UNL     1      18.142 -27.816  88.044  1.00  0.00    -0.274 OA
ATOM      5  C   UNL     1      19.166 -27.220  88.375  1.00  0.00     0.228 C 
ATOM      6  H   UNL     1      18.203 -25.498  88.166  1.00  0.00     0.163 HD
BRANCH   5   7
ATOM      7  C   UNL     1      20.478 -27.932  88.734  1.00  0.00     0.115 C 
ATOM      8  C   UNL     1      20.646 -27.976  90.271  1.00  0.00     0.102 C 
ATOM      9  C   UNL     1      21.645 -27.214  88.096  1.00  0.00    -0.007 C 
ATOM     10  N   UNL     1      21.966 -28.453  90.729  1.00  0.00    -0.298 NA
ATOM     11  C   UNL     1      22.804 -27.040  88.757  1.00  0.00    -0.026 C 
ATOM     12  C   UNL     1      23.056 -27.601  90.185  1.00  0.00     0.091 C 
ATOM     13  C   UNL     1      23.890 -26.193  88.215  1.00  0.00    -0.011 A 
ATOM     14  C   UNL     1      23.429 -26.469  91.213  1.00  0.00     0.061 C 
ATOM     15  C   UNL     1      24.629 -25.536  89.212  1.00  0.00     0.010 A 
ATOM     16  C   UNL     1      24.239 -25.956  86.884  1.00  0.00     0.009 A 
ATOM     17  C   UNL     1      24.490 -25.595  90.621  1.00  0.00    -0.020 A 
ATOM     18  C   UNL     1      25.671 -24.680  88.901  1.00  0.00     0.046 A 
ATOM     19  C   UNL     1      25.299 -25.090  86.576  1.00  0.00     0.003 A 
ATOM     20  C   UNL     1      25.449 -24.766  91.155  1.00  0.00     0.087 A 
ATOM     21  N   UNL     1      26.157 -24.217  90.105  1.00  0.00    -0.361 N 
ATOM     22  C   UNL     1      26.038 -24.432  87.575  1.00  0.00     0.027 A 
ATOM     23  C   UNL     1      22.179 -29.862  90.397  1.00  0.00     0.106 C 
ATOM     24  H   UNL     1      26.923 -23.566  90.202  1.00  0.00     0.166 HD
ENDBRANCH   5   7
ENDBRANCH   1   3
BRANCH   1  25
ATOM     25  C   UNL     1      20.140 -23.907  87.322  1.00  0.00     0.180 C 
BRANCH  25  26
ATOM     26  O   UNL     1      21.355 -23.899  86.584  1.00  0.00    -0.394 OA
ATOM     27  H   UNL     1      21.362 -24.703  86.034  1.00  0.00     0.210 HD
ENDBRANCH  25  26
ENDBRANCH   1  25
TORSDOF 4
ENDMDL
MODEL 16
REMARK VINA RESULT:    -7.064      2.528      7.237
REMARK INTER + INTRA:          -8.970
REMARK INTER:                  -8.884
REMARK INTRA:                  -0.087
REMARK UNBOUND:                -0.461
REMARK SMILES C[C@@H](CO)NC(=O)[C@@H]1C=C2c3cccc4[nH]cc(c34)C[C@H]2N(C)C1
REMARK SMILES IDX 2 1 1 2 5 3 7 4 6 5 8 7 24 8 9 9 22 10 10 11 21 12 11 13
REMARK SMILES IDX 20 14 19 15 12 16 18 17 15 18 13 19 17 20 16 21 14 22 23 23
REMARK SMILES IDX 3 25 4 26
REMARK H PARENT 5 6 16 24 4 27
ROOT
ATOM      1  C   UNL     1      17.883 -24.891  83.888  1.00  0.00     0.104 C 
ATOM      2  C   UNL     1      16.947 -25.720  84.768  1.00  0.00     0.033 C 
ENDROOT
BRANCH   1   3
ATOM      3  N   UNL     1      19.164 -25.581  83.746  1.00  0.00    -0.351 N 
ATOM      4  O   UNL     1      21.264 -26.073  84.299  1.00  0.00    -0.274 OA
ATOM      5  C   UNL     1      20.145 -25.740  84.690  1.00  0.00     0.228 C 
ATOM      6  H   UNL     1      19.520 -25.719  82.807  1.00  0.00     0.163 HD
BRANCH   5   7
ATOM      7  C   UNL     1      19.796 -25.531  86.170  1.00  0.00     0.115 C 
ATOM      8  C   UNL     1      20.260 -24.127  86.624  1.00  0.00     0.102 C 
ATOM      9  C   UNL     1      20.454 -26.601  87.010  1.00  0.00    -0.007 C 
ATOM     10  N   UNL     1      20.162 -23.892  88.079  1.00  0.00    -0.298 NA
ATOM     11  C   UNL     1      21.005 -26.312  88.203  1.00  0.00    -0.026 C 
ATOM     12  C   UNL     1      20.963 -24.891  88.833  1.00  0.00     0.091 C 
ATOM     13  C   UNL     1      21.800 -27.308  88.955  1.00  0.00    -0.011 A 
ATOM     14  C   UNL     1      22.403 -24.328  89.128  1.00  0.00     0.061 C 
ATOM     15  C   UNL     1      22.843 -26.734  89.701  1.00  0.00     0.010 A 
ATOM     16  C   UNL     1      21.664 -28.697  88.991  1.00  0.00     0.009 A 
ATOM     17  C   UNL     1      23.204 -25.371  89.841  1.00  0.00    -0.020 A 
ATOM     18  C   UNL     1      23.712 -27.507  90.452  1.00  0.00     0.046 A 
ATOM     19  C   UNL     1      22.546 -29.473  89.758  1.00  0.00     0.003 A 
ATOM     20  C   UNL     1      24.298 -25.328  90.674  1.00  0.00     0.087 A 
ATOM     21  N   UNL     1      24.597 -26.625  91.036  1.00  0.00    -0.361 N 
ATOM     22  C   UNL     1      23.590 -28.897  90.503  1.00  0.00     0.027 A 
ATOM     23  C   UNL     1      18.772 -23.873  88.534  1.00  0.00     0.106 C 
ATOM     24  H   UNL     1      25.358 -26.895  91.643  1.00  0.00     0.166 HD
ENDBRANCH   5   7
ENDBRANCH   1   3
BRANCH   1  25
ATOM     25  C   UNL     1      17.250 -24.612  82.513  1.00  0.00     0.180 C 
BRANCH  25  26
ATOM     26  O   UNL     1      15.833 -24.689  82.590  1.00  0.00    -0.394 OA
ATOM     27  H   UNL     1      15.475 -24.006  81.994  1.00  0.00     0.210 HD
ENDBRANCH  25  26
ENDBRANCH   1  25
TORSDOF 4
ENDMDL
MODEL 17
REMARK VINA RESULT:    -7.049      1.882      3.352
REMARK INTER + INTRA:          -8.952
REMARK INTER:                  -9.022
REMARK INTRA:                   0.070
REMARK UNBOUND:                -0.461
REMARK SMILES C[C@@H](CO)NC(=O)[C@@H]1C=C2c3cccc4[nH]cc(c34)C[C@H]2N(C)C1
REMARK SMILES IDX 2 1 1 2 5 3 7 4 6 5 8 7 24 8 9 9 22 10 10 11 21 12 11 13
REMARK SMILES IDX 20 14 19 15 12 16 18 17 15 18 13 19 17 20 16 21 14 22 23 23
REMARK SMILES IDX 3 25 4 26
REMARK H PARENT 5 6 16 24 4 27
ROOT
ATOM      1  C   UNL     1      19.799 -28.059  89.864  1.00  0.00     0.104 C 
ATOM      2  C   UNL     1      19.090 -28.312  91.195  1.00  0.00     0.033 C 
ENDROOT
BRANCH   1   3
ATOM      3  N   UNL     1      21.172 -28.557  89.936  1.00  0.00    -0.351 N 
ATOM      4  O   UNL     1      23.281 -28.768  89.254  1.00  0.00    -0.274 OA
ATOM      5  C   UNL     1      22.288 -28.044  89.327  1.00  0.00     0.228 C 
ATOM      6  H   UNL     1      21.307 -29.523  90.215  1.00  0.00     0.163 HD
BRANCH   5   7
ATOM      7  C   UNL     1      22.254 -26.602  88.803  1.00  0.00     0.115 C 
ATOM      8  C   UNL     1      21.339 -25.739  89.704  1.00  0.00     0.102 C 
ATOM      9  C   UNL     1      21.758 -26.584  87.376  1.00  0.00    -0.007 C 
ATOM     10  N   UNL     1      21.067 -24.385  89.181  1.00  0.00    -0.298 NA
ATOM     11  C   UNL     1      20.916 -25.629  86.941  1.00  0.00    -0.026 C 
ATOM     12  C   UNL     1      20.435 -24.453  87.837  1.00  0.00     0.091 C 
ATOM     13  C   UNL     1      20.288 -25.695  85.603  1.00  0.00    -0.011 A 
ATOM     14  C   UNL     1      18.867 -24.406  87.968  1.00  0.00     0.061 C 
ATOM     15  C   UNL     1      18.997 -25.141  85.569  1.00  0.00     0.010 A 
ATOM     16  C   UNL     1      20.791 -26.243  84.421  1.00  0.00     0.009 A 
ATOM     17  C   UNL     1      18.255 -24.528  86.608  1.00  0.00    -0.020 A 
ATOM     18  C   UNL     1      18.239 -25.132  84.411  1.00  0.00     0.046 A 
ATOM     19  C   UNL     1      20.018 -26.226  83.250  1.00  0.00     0.003 A 
ATOM     20  C   UNL     1      17.044 -24.155  86.071  1.00  0.00     0.087 A 
ATOM     21  N   UNL     1      17.046 -24.526  84.743  1.00  0.00    -0.361 N 
ATOM     22  C   UNL     1      18.726 -25.672  83.218  1.00  0.00     0.027 A 
ATOM     23  C   UNL     1      22.274 -23.559  89.158  1.00  0.00     0.106 C 
ATOM     24  H   UNL     1      16.280 -24.378  84.100  1.00  0.00     0.166 HD
ENDBRANCH   5   7
ENDBRANCH   1   3
BRANCH   1  25
ATOM     25  C   UNL     1      19.036 -28.709  88.696  1.00  0.00     0.180 C 
BRANCH  25  26
ATOM     26  O   UNL     1      18.162 -27.769  88.085  1.00  0.00    -0.394 OA
ATOM     27  H   UNL     1      18.030 -27.044  88.723  1.00  0.00     0.210 HD
ENDBRANCH  25  26
ENDBRANCH   1  25
TORSDOF 4
ENDMDL
MODEL 18
REMARK VINA RESULT:    -6.971      4.589      6.778
REMARK INTER + INTRA:          -8.858
REMARK INTER:                  -8.471
REMARK INTRA:                  -0.387
REMARK UNBOUND:                -0.461
REMARK SMILES C[C@@H](CO)NC(=O)[C@@H]1C=C2c3cccc4[nH]cc(c34)C[C@H]2N(C)C1
REMARK SMILES IDX 2 1 1 2 5 3 7 4 6 5 8 7 24 8 9 9 22 10 10 11 21 12 11 13
REMARK SMILES IDX 20 14 19 15 12 16 18 17 15 18 13 19 17 20 16 21 14 22 23 23
REMARK SMILES IDX 3 25 4 26
REMARK H PARENT 5 6 16 24 4 27
ROOT
ATOM      1  C   UNL     1      27.621 -26.168  91.788  1.00  0.00     0.104 C 
ATOM      2  C   UNL     1      27.864 -24.973  92.710  1.00  0.00     0.033 C 
ENDROOT
BRANCH   1   3
ATOM      3  N   UNL     1      27.169 -25.697  90.480  1.00  0.00    -0.351 N 
ATOM      4  O   UNL     1      25.871 -25.700  88.671  1.00  0.00    -0.274 OA
ATOM      5  C   UNL     1      25.954 -25.906  89.882  1.00  0.00     0.228 C 
ATOM      6  H   UNL     1      27.879 -25.432  89.805  1.00  0.00     0.163 HD
BRANCH   5   7
ATOM      7  C   UNL     1      24.765 -26.350  90.745  1.00  0.00     0.115 C 
ATOM      8  C   UNL     1      24.558 -27.877  90.606  1.00  0.00     0.102 C 
ATOM      9  C   UNL     1      23.518 -25.608  90.325  1.00  0.00    -0.007 C 
ATOM     10  N   UNL     1      23.320 -28.385  91.229  1.00  0.00    -0.298 NA
ATOM     11  C   UNL     1      22.326 -26.229  90.257  1.00  0.00    -0.026 C 
ATOM     12  C   UNL     1      22.123 -27.718  90.652  1.00  0.00     0.091 C 
ATOM     13  C   UNL     1      21.134 -25.564  89.685  1.00  0.00    -0.011 A 
ATOM     14  C   UNL     1      21.539 -28.574  89.468  1.00  0.00     0.061 C 
ATOM     15  C   UNL     1      20.265 -26.452  89.030  1.00  0.00     0.010 A 
ATOM     16  C   UNL     1      20.793 -24.210  89.693  1.00  0.00     0.009 A 
ATOM     17  C   UNL     1      20.368 -27.857  88.871  1.00  0.00    -0.020 A 
ATOM     18  C   UNL     1      19.108 -26.015  88.409  1.00  0.00     0.046 A 
ATOM     19  C   UNL     1      19.616 -23.775  89.066  1.00  0.00     0.003 A 
ATOM     20  C   UNL     1      19.270 -28.262  88.148  1.00  0.00     0.087 A 
ATOM     21  N   UNL     1      18.516 -27.139  87.874  1.00  0.00    -0.361 N 
ATOM     22  C   UNL     1      18.748 -24.666  88.409  1.00  0.00     0.027 A 
ATOM     23  C   UNL     1      23.351 -28.253  92.686  1.00  0.00     0.106 C 
ATOM     24  H   UNL     1      17.651 -27.138  87.352  1.00  0.00     0.166 HD
ENDBRANCH   5   7
ENDBRANCH   1   3
BRANCH   1  25
ATOM     25  C   UNL     1      28.887 -27.034  91.656  1.00  0.00     0.180 C 
BRANCH  25  26
ATOM     26  O   UNL     1      28.946 -27.995  92.702  1.00  0.00    -0.394 OA
ATOM     27  H   UNL     1      28.073 -28.424  92.747  1.00  0.00     0.210 HD
ENDBRANCH  25  26
ENDBRANCH   1  25
TORSDOF 4
ENDMDL
