MODEL 1
REMARK VINA RESULT:    -8.546      0.000      0.000
REMARK INTER + INTRA:         -10.970
REMARK INTER:                 -10.544
REMARK INTRA:                  -0.426
REMARK UNBOUND:                -0.426
REMARK SMILES CCN(CC)C(=O)[C@@H]1C=C2c3cccc4[nH]cc(c34)C[C@H]2N(CC)C1
REMARK SMILES IDX 22 1 16 2 21 3 10 4 20 5 25 6 8 7 18 8 11 9 9 10 19 11 15 12
REMARK SMILES IDX 17 13 12 14 14 15 13 16 6 18 7 19 3 20 2 21 1 22 4 23 5 24
REMARK SMILES IDX 23 25 24 26
REMARK H PARENT 16 17
ROOT
ATOM      1  N   UNL     1      21.175  18.429  11.639  1.00  0.00    -0.295 NA
ATOM      2  N   UNL     1      19.314  24.053  12.860  1.00  0.00    -0.361 N 
ATOM      3  C   UNL     1      20.425  19.711  11.804  1.00  0.00     0.091 C 
ATOM      4  C   UNL     1      19.675  20.137  10.508  1.00  0.00    -0.026 C 
ATOM      5  C   UNL     1      21.239  20.917  12.422  1.00  0.00     0.061 C 
ATOM      6  C   UNL     1      21.879  18.398  10.347  1.00  0.00     0.102 C 
ATOM      7  C   UNL     1      20.869  18.402   9.180  1.00  0.00     0.116 C 
ATOM      8  C   UNL     1      20.371  22.134  12.483  1.00  0.00    -0.020 A 
ATOM      9  C   UNL     1      18.819  21.336  10.628  1.00  0.00    -0.011 A 
ATOM     10  C   UNL     1      19.869  19.527   9.324  1.00  0.00    -0.007 C 
ATOM     11  C   UNL     1      19.263  22.236  11.609  1.00  0.00     0.010 A 
ATOM     12  C   UNL     1      18.607  23.429  11.853  1.00  0.00     0.046 A 
ATOM     13  C   UNL     1      20.385  23.275  13.250  1.00  0.00     0.087 A 
ATOM     14  C   UNL     1      17.684  21.685   9.892  1.00  0.00     0.009 A 
ATOM     15  C   UNL     1      17.468  23.796  11.132  1.00  0.00     0.027 A 
ATOM     16  C   UNL     1      17.021  22.895  10.148  1.00  0.00     0.003 A 
ATOM     17  H   UNL     1      19.077  24.954  13.252  1.00  0.00     0.166 HD
ENDROOT
BRANCH   7  18
ATOM     18  C   UNL     1      21.658  18.512   7.861  1.00  0.00     0.230 C 
ATOM     19  O   UNL     1      21.813  19.605   7.309  1.00  0.00    -0.274 OA
ATOM     20  N   UNL     1      22.235  17.343   7.329  1.00  0.00    -0.343 N 
BRANCH  20  21
ATOM     21  C   UNL     1      21.824  15.994   7.753  1.00  0.00     0.116 C 
ATOM     22  C   UNL     1      22.780  15.290   8.705  1.00  0.00     0.027 C 
ENDBRANCH  20  21
BRANCH  20  23
ATOM     23  C   UNL     1      22.883  17.489   6.019  1.00  0.00     0.116 C 
ATOM     24  C   UNL     1      23.332  16.156   5.438  1.00  0.00     0.027 C 
ENDBRANCH  20  23
ENDBRANCH   7  18
BRANCH   1  25
ATOM     25  C   UNL     1      22.035  18.115  12.783  1.00  0.00     0.082 C 
ATOM     26  C   UNL     1      21.239  17.678  14.009  1.00  0.00     0.021 C 
ENDBRANCH   1  25
TORSDOF 4
ENDMDL
MODEL 2
REMARK VINA RESULT:    -8.530      2.287      7.587
REMARK INTER + INTRA:         -10.951
REMARK INTER:                 -10.443
REMARK INTRA:                  -0.508
REMARK UNBOUND:                -0.426
REMARK SMILES CCN(CC)C(=O)[C@@H]1C=C2c3cccc4[nH]cc(c34)C[C@H]2N(CC)C1
REMARK SMILES IDX 22 1 16 2 21 3 10 4 20 5 25 6 8 7 18 8 11 9 9 10 19 11 15 12
REMARK SMILES IDX 17 13 12 14 14 15 13 16 6 18 7 19 3 20 2 21 1 22 4 23 5 24
REMARK SMILES IDX 23 25 24 26
REMARK H PARENT 16 17
ROOT
ATOM      1  N   UNL     1      20.099  18.942  10.020  1.00  0.00    -0.295 NA
ATOM      2  N   UNL     1      23.324  16.123   5.749  1.00  0.00    -0.361 N 
ATOM      3  C   UNL     1      20.832  17.972   9.152  1.00  0.00     0.091 C 
ATOM      4  C   UNL     1      21.774  17.035   9.965  1.00  0.00    -0.026 C 
ATOM      5  C   UNL     1      21.570  18.583   7.896  1.00  0.00     0.061 C 
ATOM      6  C   UNL     1      20.996  19.516  11.036  1.00  0.00     0.102 C 
ATOM      7  C   UNL     1      21.480  18.421  12.012  1.00  0.00     0.116 C 
ATOM      8  C   UNL     1      22.290  17.501   7.156  1.00  0.00    -0.020 A 
ATOM      9  C   UNL     1      22.447  15.974   9.187  1.00  0.00    -0.011 A 
ATOM     10  C   UNL     1      22.051  17.236  11.266  1.00  0.00    -0.007 C 
ATOM     11  C   UNL     1      22.653  16.318   7.843  1.00  0.00     0.010 A 
ATOM     12  C   UNL     1      23.291  15.465   6.961  1.00  0.00     0.046 A 
ATOM     13  C   UNL     1      22.718  17.359   5.856  1.00  0.00     0.087 A 
ATOM     14  C   UNL     1      22.914  14.729   9.617  1.00  0.00     0.009 A 
ATOM     15  C   UNL     1      23.761  14.213   7.368  1.00  0.00     0.027 A 
ATOM     16  C   UNL     1      23.556  13.865   8.716  1.00  0.00     0.003 A 
ATOM     17  H   UNL     1      23.736  15.750   4.906  1.00  0.00     0.166 HD
ENDROOT
BRANCH   7  18
ATOM     18  C   UNL     1      22.520  19.048  12.961  1.00  0.00     0.230 C 
ATOM     19  O   UNL     1      23.717  18.762  12.859  1.00  0.00    -0.274 OA
ATOM     20  N   UNL     1      22.076  19.985  13.911  1.00  0.00    -0.343 N 
BRANCH  20  21
ATOM     21  C   UNL     1      20.660  20.120  14.289  1.00  0.00     0.116 C 
ATOM     22  C   UNL     1      20.049  21.494  14.052  1.00  0.00     0.027 C 
ENDBRANCH  20  21
BRANCH  20  23
ATOM     23  C   UNL     1      23.093  20.468  14.856  1.00  0.00     0.116 C 
ATOM     24  C   UNL     1      23.009  19.774  16.208  1.00  0.00     0.027 C 
ENDBRANCH  20  23
ENDBRANCH   7  18
BRANCH   1  25
ATOM     25  C   UNL     1      19.358  19.949   9.257  1.00  0.00     0.082 C 
ATOM     26  C   UNL     1      18.369  20.726  10.122  1.00  0.00     0.021 C 
ENDBRANCH   1  25
TORSDOF 4
ENDMDL
MODEL 3
REMARK VINA RESULT:    -8.232      1.768      6.741
REMARK INTER + INTRA:         -10.583
REMARK INTER:                  -9.912
REMARK INTRA:                  -0.671
REMARK UNBOUND:                -0.426
REMARK SMILES CCN(CC)C(=O)[C@@H]1C=C2c3cccc4[nH]cc(c34)C[C@H]2N(CC)C1
REMARK SMILES IDX 22 1 16 2 21 3 10 4 20 5 25 6 8 7 18 8 11 9 9 10 19 11 15 12
REMARK SMILES IDX 17 13 12 14 14 15 13 16 6 18 7 19 3 20 2 21 1 22 4 23 5 24
REMARK SMILES IDX 23 25 24 26
REMARK H PARENT 16 17
ROOT
ATOM      1  N   UNL     1      21.801  18.723  12.487  1.00  0.00    -0.295 NA
ATOM      2  N   UNL     1      22.293  15.546   7.364  1.00  0.00    -0.361 N 
ATOM      3  C   UNL     1      22.020  18.234  11.092  1.00  0.00     0.091 C 
ATOM      4  C   UNL     1      21.364  19.159  10.025  1.00  0.00    -0.026 C 
ATOM      5  C   UNL     1      21.678  16.714  10.826  1.00  0.00     0.061 C 
ATOM      6  C   UNL     1      20.413  19.176  12.671  1.00  0.00     0.102 C 
ATOM      7  C   UNL     1      20.124  20.408  11.786  1.00  0.00     0.116 C 
ATOM      8  C   UNL     1      21.905  16.390   9.384  1.00  0.00    -0.020 A 
ATOM      9  C   UNL     1      21.634  18.803   8.616  1.00  0.00    -0.011 A 
ATOM     10  C   UNL     1      20.518  20.154  10.348  1.00  0.00    -0.007 C 
ATOM     11  C   UNL     1      21.870  17.433   8.428  1.00  0.00     0.010 A 
ATOM     12  C   UNL     1      22.117  16.901   7.175  1.00  0.00     0.046 A 
ATOM     13  C   UNL     1      22.167  15.225   8.700  1.00  0.00     0.087 A 
ATOM     14  C   UNL     1      21.652  19.626   7.487  1.00  0.00     0.009 A 
ATOM     15  C   UNL     1      22.144  17.707   6.033  1.00  0.00     0.027 A 
ATOM     16  C   UNL     1      21.908  19.081   6.220  1.00  0.00     0.003 A 
ATOM     17  H   UNL     1      22.484  14.885   6.624  1.00  0.00     0.166 HD
ENDROOT
BRANCH   7  18
ATOM     18  C   UNL     1      18.626  20.749  11.911  1.00  0.00     0.230 C 
ATOM     19  O   UNL     1      17.771  19.862  11.845  1.00  0.00    -0.274 OA
ATOM     20  N   UNL     1      18.266  22.089  12.148  1.00  0.00    -0.343 N 
BRANCH  20  21
ATOM     21  C   UNL     1      19.190  23.211  11.918  1.00  0.00     0.116 C 
ATOM     22  C   UNL     1      19.859  23.771  13.165  1.00  0.00     0.027 C 
ENDBRANCH  20  21
BRANCH  20  23
ATOM     23  C   UNL     1      16.824  22.371  12.152  1.00  0.00     0.116 C 
ATOM     24  C   UNL     1      16.434  23.431  11.132  1.00  0.00     0.027 C 
ENDBRANCH  20  23
ENDBRANCH   7  18
BRANCH   1  25
ATOM     25  C   UNL     1      22.246  17.768  13.506  1.00  0.00     0.082 C 
ATOM     26  C   UNL     1      21.739  18.124  14.900  1.00  0.00     0.021 C 
ENDBRANCH   1  25
TORSDOF 4
ENDMDL
MODEL 4
REMARK VINA RESULT:    -8.215      3.395      6.124
REMARK INTER + INTRA:         -10.562
REMARK INTER:                  -9.876
REMARK INTRA:                  -0.686
REMARK UNBOUND:                -0.426
REMARK SMILES CCN(CC)C(=O)[C@@H]1C=C2c3cccc4[nH]cc(c34)C[C@H]2N(CC)C1
REMARK SMILES IDX 22 1 16 2 21 3 10 4 20 5 25 6 8 7 18 8 11 9 9 10 19 11 15 12
REMARK SMILES IDX 17 13 12 14 14 15 13 16 6 18 7 19 3 20 2 21 1 22 4 23 5 24
REMARK SMILES IDX 23 25 24 26
REMARK H PARENT 16 17
ROOT
ATOM      1  N   UNL     1      21.885  22.048  12.812  1.00  0.00    -0.295 NA
ATOM      2  N   UNL     1      23.529  20.425  18.402  1.00  0.00    -0.361 N 
ATOM      3  C   UNL     1      22.522  21.463  14.030  1.00  0.00     0.091 C 
ATOM      4  C   UNL     1      22.723  19.923  13.918  1.00  0.00    -0.026 C 
ATOM      5  C   UNL     1      21.872  21.861  15.414  1.00  0.00     0.061 C 
ATOM      6  C   UNL     1      20.775  21.201  12.344  1.00  0.00     0.102 C 
ATOM      7  C   UNL     1      21.303  19.828  11.876  1.00  0.00     0.116 C 
ATOM      8  C   UNL     1      22.589  21.166  16.528  1.00  0.00    -0.020 A 
ATOM      9  C   UNL     1      23.452  19.290  15.038  1.00  0.00    -0.011 A 
ATOM     10  C   UNL     1      22.181  19.190  12.929  1.00  0.00    -0.007 C 
ATOM     11  C   UNL     1      23.303  19.975  16.253  1.00  0.00     0.010 A 
ATOM     12  C   UNL     1      23.888  19.523  17.422  1.00  0.00     0.046 A 
ATOM     13  C   UNL     1      22.742  21.426  17.870  1.00  0.00     0.087 A 
ATOM     14  C   UNL     1      24.216  18.120  15.042  1.00  0.00     0.009 A 
ATOM     15  C   UNL     1      24.661  18.359  17.447  1.00  0.00     0.027 A 
ATOM     16  C   UNL     1      24.812  17.670  16.230  1.00  0.00     0.003 A 
ATOM     17  H   UNL     1      23.805  20.356  19.371  1.00  0.00     0.166 HD
ENDROOT
BRANCH   7  18
ATOM     18  C   UNL     1      20.092  18.939  11.533  1.00  0.00     0.230 C 
ATOM     19  O   UNL     1      19.202  18.739  12.366  1.00  0.00    -0.274 OA
ATOM     20  N   UNL     1      20.006  18.400  10.236  1.00  0.00    -0.343 N 
BRANCH  20  21
ATOM     21  C   UNL     1      21.163  18.334   9.327  1.00  0.00     0.116 C 
ATOM     22  C   UNL     1      21.198  19.396   8.238  1.00  0.00     0.027 C 
ENDBRANCH  20  21
BRANCH  20  23
ATOM     23  C   UNL     1      18.889  17.476  10.001  1.00  0.00     0.116 C 
ATOM     24  C   UNL     1      19.261  16.027  10.277  1.00  0.00     0.027 C 
ENDBRANCH  20  23
ENDBRANCH   7  18
BRANCH   1  25
ATOM     25  C   UNL     1      21.517  23.456  12.977  1.00  0.00     0.082 C 
ATOM     26  C   UNL     1      20.159  23.782  12.361  1.00  0.00     0.021 C 
ENDBRANCH   1  25
TORSDOF 4
ENDMDL
MODEL 5
REMARK VINA RESULT:    -8.119      2.514      6.782
REMARK INTER + INTRA:         -10.443
REMARK INTER:                 -10.529
REMARK INTRA:                   0.085
REMARK UNBOUND:                -0.426
REMARK SMILES CCN(CC)C(=O)[C@@H]1C=C2c3cccc4[nH]cc(c34)C[C@H]2N(CC)C1
REMARK SMILES IDX 22 1 16 2 21 3 10 4 20 5 25 6 8 7 18 8 11 9 9 10 19 11 15 12
REMARK SMILES IDX 17 13 12 14 14 15 13 16 6 18 7 19 3 20 2 21 1 22 4 23 5 24
REMARK SMILES IDX 23 25 24 26
REMARK H PARENT 16 17
ROOT
ATOM      1  N   UNL     1      19.004  18.920  10.861  1.00  0.00    -0.295 NA
ATOM      2  N   UNL     1      22.660  18.051   6.121  1.00  0.00    -0.361 N 
ATOM      3  C   UNL     1      19.872  18.380   9.771  1.00  0.00     0.091 C 
ATOM      4  C   UNL     1      20.898  17.329  10.290  1.00  0.00    -0.026 C 
ATOM      5  C   UNL     1      20.565  19.451   8.839  1.00  0.00     0.061 C 
ATOM      6  C   UNL     1      19.798  19.211  12.066  1.00  0.00     0.102 C 
ATOM      7  C   UNL     1      20.383  17.909  12.655  1.00  0.00     0.116 C 
ATOM      8  C   UNL     1      21.430  18.761   7.832  1.00  0.00    -0.020 A 
ATOM      9  C   UNL     1      21.715  16.666   9.252  1.00  0.00    -0.011 A 
ATOM     10  C   UNL     1      21.113  17.110  11.600  1.00  0.00    -0.007 C 
ATOM     11  C   UNL     1      21.914  17.461   8.113  1.00  0.00     0.010 A 
ATOM     12  C   UNL     1      22.674  17.025   7.043  1.00  0.00     0.046 A 
ATOM     13  C   UNL     1      21.907  19.109   6.589  1.00  0.00     0.087 A 
ATOM     14  C   UNL     1      22.317  15.406   9.276  1.00  0.00     0.009 A 
ATOM     15  C   UNL     1      23.280  15.766   7.044  1.00  0.00     0.027 A 
ATOM     16  C   UNL     1      23.082  14.967   8.185  1.00  0.00     0.003 A 
ATOM     17  H   UNL     1      23.137  18.028   5.231  1.00  0.00     0.166 HD
ENDROOT
BRANCH   7  18
ATOM     18  C   UNL     1      21.314  18.287  13.824  1.00  0.00     0.230 C 
ATOM     19  O   UNL     1      21.076  17.896  14.971  1.00  0.00    -0.274 OA
ATOM     20  N   UNL     1      22.464  19.048  13.541  1.00  0.00    -0.343 N 
BRANCH  20  21
ATOM     21  C   UNL     1      22.628  19.799  12.286  1.00  0.00     0.116 C 
ATOM     22  C   UNL     1      22.815  21.301  12.443  1.00  0.00     0.027 C 
ENDBRANCH  20  21
BRANCH  20  23
ATOM     23  C   UNL     1      23.255  19.467  14.706  1.00  0.00     0.116 C 
ATOM     24  C   UNL     1      24.486  18.598  14.919  1.00  0.00     0.027 C 
ENDBRANCH  20  23
ENDBRANCH   7  18
BRANCH   1  25
ATOM     25  C   UNL     1      18.168  20.041  10.425  1.00  0.00     0.082 C 
ATOM     26  C   UNL     1      18.413  21.305  11.245  1.00  0.00     0.021 C 
ENDBRANCH   1  25
TORSDOF 4
ENDMDL
MODEL 6
REMARK VINA RESULT:    -8.043      4.221      7.359
REMARK INTER + INTRA:         -10.350
REMARK INTER:                  -9.734
REMARK INTRA:                  -0.616
REMARK UNBOUND:                -0.426
REMARK SMILES CCN(CC)C(=O)[C@@H]1C=C2c3cccc4[nH]cc(c34)C[C@H]2N(CC)C1
REMARK SMILES IDX 22 1 16 2 21 3 10 4 20 5 25 6 8 7 18 8 11 9 9 10 19 11 15 12
REMARK SMILES IDX 17 13 12 14 14 15 13 16 6 18 7 19 3 20 2 21 1 22 4 23 5 24
REMARK SMILES IDX 23 25 24 26
REMARK H PARENT 16 17
ROOT
ATOM      1  N   UNL     1      22.166  22.246  14.930  1.00  0.00    -0.295 NA
ATOM      2  N   UNL     1      24.580  19.248  19.596  1.00  0.00    -0.361 N 
ATOM      3  C   UNL     1      22.982  21.398  15.850  1.00  0.00     0.091 C 
ATOM      4  C   UNL     1      23.259  19.980  15.269  1.00  0.00    -0.026 C 
ATOM      5  C   UNL     1      22.485  21.320  17.348  1.00  0.00     0.061 C 
ATOM      6  C   UNL     1      21.060  21.469  14.346  1.00  0.00     0.102 C 
ATOM      7  C   UNL     1      21.607  20.343  13.443  1.00  0.00     0.116 C 
ATOM      8  C   UNL     1      23.373  20.404  18.129  1.00  0.00    -0.020 A 
ATOM      9  C   UNL     1      24.156  19.123  16.072  1.00  0.00    -0.011 A 
ATOM     10  C   UNL     1      22.644  19.514  14.167  1.00  0.00    -0.007 C 
ATOM     11  C   UNL     1      24.118  19.414  17.444  1.00  0.00     0.010 A 
ATOM     12  C   UNL     1      24.869  18.703  18.362  1.00  0.00     0.046 A 
ATOM     13  C   UNL     1      23.675  20.282  19.465  1.00  0.00     0.087 A 
ATOM     14  C   UNL     1      24.984  18.078  15.654  1.00  0.00     0.009 A 
ATOM     15  C   UNL     1      25.706  17.657  17.965  1.00  0.00     0.027 A 
ATOM     16  C   UNL     1      25.747  17.363  16.590  1.00  0.00     0.003 A 
ATOM     17  H   UNL     1      24.976  18.931  20.469  1.00  0.00     0.166 HD
ENDROOT
BRANCH   7  18
ATOM     18  C   UNL     1      20.417  19.481  12.976  1.00  0.00     0.230 C 
ATOM     19  O   UNL     1      19.644  18.978  13.797  1.00  0.00    -0.274 OA
ATOM     20  N   UNL     1      20.212  19.321  11.593  1.00  0.00    -0.343 N 
BRANCH  20  21
ATOM     21  C   UNL     1      21.256  19.615  10.598  1.00  0.00     0.116 C 
ATOM     22  C   UNL     1      21.215  18.762   9.338  1.00  0.00     0.027 C 
ENDBRANCH  20  21
BRANCH  20  23
ATOM     23  C   UNL     1      19.130  18.404  11.210  1.00  0.00     0.116 C 
ATOM     24  C   UNL     1      17.894  19.137  10.710  1.00  0.00     0.027 C 
ENDBRANCH  20  23
ENDBRANCH   7  18
BRANCH   1  25
ATOM     25  C   UNL     1      21.738  23.507  15.539  1.00  0.00     0.082 C 
ATOM     26  C   UNL     1      21.120  24.466  14.525  1.00  0.00     0.021 C 
ENDBRANCH   1  25
TORSDOF 4
ENDMDL
MODEL 7
REMARK VINA RESULT:    -7.882      3.948      6.774
REMARK INTER + INTRA:         -10.152
REMARK INTER:                  -9.528
REMARK INTRA:                  -0.623
REMARK UNBOUND:                -0.426
REMARK SMILES CCN(CC)C(=O)[C@@H]1C=C2c3cccc4[nH]cc(c34)C[C@H]2N(CC)C1
REMARK SMILES IDX 22 1 16 2 21 3 10 4 20 5 25 6 8 7 18 8 11 9 9 10 19 11 15 12
REMARK SMILES IDX 17 13 12 14 14 15 13 16 6 18 7 19 3 20 2 21 1 22 4 23 5 24
REMARK SMILES IDX 23 25 24 26
REMARK H PARENT 16 17
ROOT
ATOM      1  N   UNL     1      17.955  23.167  12.133  1.00  0.00    -0.295 NA
ATOM      2  N   UNL     1      13.813  22.659  16.512  1.00  0.00    -0.361 N 
ATOM      3  C   UNL     1      17.154  23.223  13.393  1.00  0.00     0.091 C 
ATOM      4  C   UNL     1      17.997  22.872  14.654  1.00  0.00    -0.026 C 
ATOM      5  C   UNL     1      15.782  22.438  13.380  1.00  0.00     0.061 C 
ATOM      6  C   UNL     1      18.826  21.981  12.120  1.00  0.00     0.102 C 
ATOM      7  C   UNL     1      19.884  22.073  13.240  1.00  0.00     0.116 C 
ATOM      8  C   UNL     1      15.122  22.551  14.718  1.00  0.00    -0.020 A 
ATOM      9  C   UNL     1      17.301  23.017  15.950  1.00  0.00    -0.011 A 
ATOM     10  C   UNL     1      19.241  22.366  14.577  1.00  0.00    -0.007 C 
ATOM     11  C   UNL     1      15.914  22.829  15.857  1.00  0.00     0.010 A 
ATOM     12  C   UNL     1      15.093  22.899  16.968  1.00  0.00     0.046 A 
ATOM     13  C   UNL     1      13.820  22.448  15.148  1.00  0.00     0.087 A 
ATOM     14  C   UNL     1      17.838  23.278  17.214  1.00  0.00     0.009 A 
ATOM     15  C   UNL     1      15.608  23.163  18.240  1.00  0.00     0.027 A 
ATOM     16  C   UNL     1      16.999  23.352  18.336  1.00  0.00     0.003 A 
ATOM     17  H   UNL     1      12.991  22.639  17.098  1.00  0.00     0.166 HD
ENDROOT
BRANCH   7  18
ATOM     18  C   UNL     1      20.671  20.748  13.268  1.00  0.00     0.230 C 
ATOM     19  O   UNL     1      20.151  19.699  12.877  1.00  0.00    -0.274 OA
ATOM     20  N   UNL     1      22.008  20.776  13.708  1.00  0.00    -0.343 N 
BRANCH  20  21
ATOM     21  C   UNL     1      22.567  21.903  14.472  1.00  0.00     0.116 C 
ATOM     22  C   UNL     1      22.694  21.675  15.972  1.00  0.00     0.027 C 
ENDBRANCH  20  21
BRANCH  20  23
ATOM     23  C   UNL     1      22.672  19.471  13.814  1.00  0.00     0.116 C 
ATOM     24  C   UNL     1      23.737  19.269  12.745  1.00  0.00     0.027 C 
ENDBRANCH  20  23
ENDBRANCH   7  18
BRANCH   1  25
ATOM     25  C   UNL     1      17.137  23.308  10.926  1.00  0.00     0.082 C 
ATOM     26  C   UNL     1      17.478  22.265   9.865  1.00  0.00     0.021 C 
ENDBRANCH   1  25
TORSDOF 4
ENDMDL
MODEL 8
REMARK VINA RESULT:    -7.832      2.344      5.020
REMARK INTER + INTRA:         -10.090
REMARK INTER:                  -9.474
REMARK INTRA:                  -0.616
REMARK UNBOUND:                -0.426
REMARK SMILES CCN(CC)C(=O)[C@@H]1C=C2c3cccc4[nH]cc(c34)C[C@H]2N(CC)C1
REMARK SMILES IDX 22 1 16 2 21 3 10 4 20 5 25 6 8 7 18 8 11 9 9 10 19 11 15 12
REMARK SMILES IDX 17 13 12 14 14 15 13 16 6 18 7 19 3 20 2 21 1 22 4 23 5 24
REMARK SMILES IDX 23 25 24 26
REMARK H PARENT 16 17
ROOT
ATOM      1  N   UNL     1      18.469  22.933  10.940  1.00  0.00    -0.295 NA
ATOM      2  N   UNL     1      19.454  23.947  16.820  1.00  0.00    -0.361 N 
ATOM      3  C   UNL     1      19.037  23.167  12.302  1.00  0.00     0.091 C 
ATOM      4  C   UNL     1      20.160  22.151  12.664  1.00  0.00    -0.026 C 
ATOM      5  C   UNL     1      17.990  23.312  13.476  1.00  0.00     0.061 C 
ATOM      6  C   UNL     1      18.254  21.496  10.702  1.00  0.00     0.102 C 
ATOM      7  C   UNL     1      19.602  20.743  10.688  1.00  0.00     0.116 C 
ATOM      8  C   UNL     1      18.709  23.497  14.775  1.00  0.00    -0.020 A 
ATOM      9  C   UNL     1      20.848  22.389  13.950  1.00  0.00    -0.011 A 
ATOM     10  C   UNL     1      20.421  21.062  11.918  1.00  0.00    -0.007 C 
ATOM     11  C   UNL     1      20.042  23.038  14.897  1.00  0.00     0.010 A 
ATOM     12  C   UNL     1      20.500  23.325  16.170  1.00  0.00     0.046 A 
ATOM     13  C   UNL     1      18.363  24.057  15.982  1.00  0.00     0.087 A 
ATOM     14  C   UNL     1      22.144  22.035  14.334  1.00  0.00     0.009 A 
ATOM     15  C   UNL     1      21.794  22.984  16.573  1.00  0.00     0.027 A 
ATOM     16  C   UNL     1      22.604  22.334  15.625  1.00  0.00     0.003 A 
ATOM     17  H   UNL     1      19.487  24.272  17.776  1.00  0.00     0.166 HD
ENDROOT
BRANCH   7  18
ATOM     18  C   UNL     1      19.309  19.234  10.578  1.00  0.00     0.230 C 
ATOM     19  O   UNL     1      18.402  18.720  11.240  1.00  0.00    -0.274 OA
ATOM     20  N   UNL     1      20.069  18.471   9.673  1.00  0.00    -0.343 N 
BRANCH  20  21
ATOM     21  C   UNL     1      21.344  18.946   9.112  1.00  0.00     0.116 C 
ATOM     22  C   UNL     1      21.253  19.582   7.732  1.00  0.00     0.027 C 
ENDBRANCH  20  21
BRANCH  20  23
ATOM     23  C   UNL     1      19.818  17.024   9.690  1.00  0.00     0.116 C 
ATOM     24  C   UNL     1      20.893  16.253  10.443  1.00  0.00     0.027 C 
ENDBRANCH  20  23
ENDBRANCH   7  18
BRANCH   1  25
ATOM     25  C   UNL     1      17.289  23.755  10.661  1.00  0.00     0.082 C 
ATOM     26  C   UNL     1      17.404  24.515   9.342  1.00  0.00     0.021 C 
ENDBRANCH   1  25
TORSDOF 4
ENDMDL
MODEL 9
REMARK VINA RESULT:    -7.688      3.094      5.709
REMARK INTER + INTRA:          -9.912
REMARK INTER:                  -9.370
REMARK INTRA:                  -0.542
REMARK UNBOUND:                -0.426
REMARK SMILES CCN(CC)C(=O)[C@@H]1C=C2c3cccc4[nH]cc(c34)C[C@H]2N(CC)C1
REMARK SMILES IDX 22 1 16 2 21 3 10 4 20 5 25 6 8 7 18 8 11 9 9 10 19 11 15 12
REMARK SMILES IDX 17 13 12 14 14 15 13 16 6 18 7 19 3 20 2 21 1 22 4 23 5 24
REMARK SMILES IDX 23 25 24 26
REMARK H PARENT 16 17
ROOT
ATOM      1  N   UNL     1      22.432  18.084  11.213  1.00  0.00    -0.295 NA
ATOM      2  N   UNL     1      18.212  22.417  11.263  1.00  0.00    -0.361 N 
ATOM      3  C   UNL     1      21.654  19.359  11.269  1.00  0.00     0.091 C 
ATOM      4  C   UNL     1      22.076  20.265  12.463  1.00  0.00    -0.026 C 
ATOM      5  C   UNL     1      20.083  19.220  11.177  1.00  0.00     0.061 C 
ATOM      6  C   UNL     1      22.573  17.499  12.556  1.00  0.00     0.102 C 
ATOM      7  C   UNL     1      23.417  18.421  13.463  1.00  0.00     0.116 C 
ATOM      8  C   UNL     1      19.448  20.569  11.290  1.00  0.00    -0.020 A 
ATOM      9  C   UNL     1      21.430  21.594  12.517  1.00  0.00    -0.011 A 
ATOM     10  C   UNL     1      22.889  19.838  13.446  1.00  0.00    -0.007 C 
ATOM     11  C   UNL     1      20.157  21.615  11.928  1.00  0.00     0.010 A 
ATOM     12  C   UNL     1      19.384  22.762  11.903  1.00  0.00     0.046 A 
ATOM     13  C   UNL     1      18.241  21.090  10.886  1.00  0.00     0.087 A 
ATOM     14  C   UNL     1      21.900  22.779  13.089  1.00  0.00     0.009 A 
ATOM     15  C   UNL     1      19.837  23.958  12.465  1.00  0.00     0.027 A 
ATOM     16  C   UNL     1      21.113  23.940  13.056  1.00  0.00     0.003 A 
ATOM     17  H   UNL     1      17.442  23.051  11.098  1.00  0.00     0.166 HD
ENDROOT
BRANCH   7  18
ATOM     18  C   UNL     1      23.411  17.831  14.887  1.00  0.00     0.230 C 
ATOM     19  O   UNL     1      22.384  17.334  15.358  1.00  0.00    -0.274 OA
ATOM     20  N   UNL     1      24.616  17.833  15.613  1.00  0.00    -0.343 N 
BRANCH  20  21
ATOM     21  C   UNL     1      25.763  18.680  15.245  1.00  0.00     0.116 C 
ATOM     22  C   UNL     1      27.126  18.157  15.675  1.00  0.00     0.027 C 
ENDBRANCH  20  21
BRANCH  20  23
ATOM     23  C   UNL     1      24.527  17.357  17.000  1.00  0.00     0.116 C 
ATOM     24  C   UNL     1      24.897  15.888  17.138  1.00  0.00     0.027 C 
ENDBRANCH  20  23
ENDBRANCH   7  18
BRANCH   1  25
ATOM     25  C   UNL     1      21.920  17.143  10.214  1.00  0.00     0.082 C 
ATOM     26  C   UNL     1      21.626  15.767  10.805  1.00  0.00     0.021 C 
ENDBRANCH   1  25
TORSDOF 4
ENDMDL
MODEL 10
REMARK VINA RESULT:    -7.629      3.609      6.750
REMARK INTER + INTRA:          -9.839
REMARK INTER:                  -9.154
REMARK INTRA:                  -0.686
REMARK UNBOUND:                -0.426
REMARK SMILES CCN(CC)C(=O)[C@@H]1C=C2c3cccc4[nH]cc(c34)C[C@H]2N(CC)C1
REMARK SMILES IDX 22 1 16 2 21 3 10 4 20 5 25 6 8 7 18 8 11 9 9 10 19 11 15 12
REMARK SMILES IDX 17 13 12 14 14 15 13 16 6 18 7 19 3 20 2 21 1 22 4 23 5 24
REMARK SMILES IDX 23 25 24 26
REMARK H PARENT 16 17
ROOT
ATOM      1  N   UNL     1      21.201  21.049  14.970  1.00  0.00    -0.295 NA
ATOM      2  N   UNL     1      19.043  19.820   9.455  1.00  0.00    -0.361 N 
ATOM      3  C   UNL     1      20.558  20.462  13.755  1.00  0.00     0.091 C 
ATOM      4  C   UNL     1      20.942  18.969  13.537  1.00  0.00    -0.026 C 
ATOM      5  C   UNL     1      20.704  21.295  12.420  1.00  0.00     0.061 C 
ATOM      6  C   UNL     1      22.611  20.638  15.065  1.00  0.00     0.102 C 
ATOM      7  C   UNL     1      22.718  19.113  15.276  1.00  0.00     0.116 C 
ATOM      8  C   UNL     1      20.051  20.562  11.292  1.00  0.00    -0.020 A 
ATOM      9  C   UNL     1      20.255  18.288  12.420  1.00  0.00    -0.011 A 
ATOM     10  C   UNL     1      21.912  18.359  14.243  1.00  0.00    -0.007 C 
ATOM     11  C   UNL     1      19.881  19.160  11.387  1.00  0.00     0.010 A 
ATOM     12  C   UNL     1      19.250  18.707  10.242  1.00  0.00     0.046 A 
ATOM     13  C   UNL     1      19.524  20.951  10.083  1.00  0.00     0.087 A 
ATOM     14  C   UNL     1      19.970  16.930  12.258  1.00  0.00     0.009 A 
ATOM     15  C   UNL     1      18.951  17.354  10.062  1.00  0.00     0.027 A 
ATOM     16  C   UNL     1      19.325  16.477  11.097  1.00  0.00     0.003 A 
ATOM     17  H   UNL     1      18.603  19.804   8.545  1.00  0.00     0.166 HD
ENDROOT
BRANCH   7  18
ATOM     18  C   UNL     1      24.208  18.723  15.226  1.00  0.00     0.230 C 
ATOM     19  O   UNL     1      24.767  18.508  14.146  1.00  0.00    -0.274 OA
ATOM     20  N   UNL     1      24.923  18.664  16.437  1.00  0.00    -0.343 N 
BRANCH  20  21
ATOM     21  C   UNL     1      24.256  18.592  17.748  1.00  0.00     0.116 C 
ATOM     22  C   UNL     1      24.112  19.919  18.480  1.00  0.00     0.027 C 
ENDBRANCH  20  21
BRANCH  20  23
ATOM     23  C   UNL     1      26.308  18.185  16.339  1.00  0.00     0.116 C 
ATOM     24  C   UNL     1      26.767  17.463  17.597  1.00  0.00     0.027 C 
ENDBRANCH  20  23
ENDBRANCH   7  18
BRANCH   1  25
ATOM     25  C   UNL     1      21.003  22.496  15.081  1.00  0.00     0.082 C 
ATOM     26  C   UNL     1      22.287  23.234  15.452  1.00  0.00     0.021 C 
ENDBRANCH   1  25
TORSDOF 4
ENDMDL
MODEL 11
REMARK VINA RESULT:    -7.629      2.036      7.280
REMARK INTER + INTRA:          -9.839
REMARK INTER:                  -9.439
REMARK INTRA:                  -0.400
REMARK UNBOUND:                -0.426
REMARK SMILES CCN(CC)C(=O)[C@@H]1C=C2c3cccc4[nH]cc(c34)C[C@H]2N(CC)C1
REMARK SMILES IDX 22 1 16 2 21 3 10 4 20 5 25 6 8 7 18 8 11 9 9 10 19 11 15 12
REMARK SMILES IDX 17 13 12 14 14 15 13 16 6 18 7 19 3 20 2 21 1 22 4 23 5 24
REMARK SMILES IDX 23 25 24 26
REMARK H PARENT 16 17
ROOT
ATOM      1  N   UNL     1      18.872  20.352  10.504  1.00  0.00    -0.295 NA
ATOM      2  N   UNL     1      22.445  17.486   6.554  1.00  0.00    -0.361 N 
ATOM      3  C   UNL     1      19.692  19.376   9.724  1.00  0.00     0.091 C 
ATOM      4  C   UNL     1      20.624  18.519  10.630  1.00  0.00    -0.026 C 
ATOM      5  C   UNL     1      20.474  19.962   8.482  1.00  0.00     0.061 C 
ATOM      6  C   UNL     1      19.686  21.010  11.539  1.00  0.00     0.102 C 
ATOM      7  C   UNL     1      20.158  19.982  12.590  1.00  0.00     0.116 C 
ATOM      8  C   UNL     1      21.279  18.880   7.835  1.00  0.00    -0.020 A 
ATOM      9  C   UNL     1      21.383  17.454   9.942  1.00  0.00    -0.011 A 
ATOM     10  C   UNL     1      20.818  18.791  11.934  1.00  0.00    -0.007 C 
ATOM     11  C   UNL     1      21.650  17.746   8.596  1.00  0.00     0.010 A 
ATOM     12  C   UNL     1      22.371  16.882   7.792  1.00  0.00     0.046 A 
ATOM     13  C   UNL     1      21.785  18.698   6.569  1.00  0.00     0.087 A 
ATOM     14  C   UNL     1      21.874  16.251  10.455  1.00  0.00     0.009 A 
ATOM     15  C   UNL     1      22.867  15.672   8.283  1.00  0.00     0.027 A 
ATOM     16  C   UNL     1      22.601  15.377   9.633  1.00  0.00     0.003 A 
ATOM     17  H   UNL     1      22.919  17.093   5.753  1.00  0.00     0.166 HD
ENDROOT
BRANCH   7  18
ATOM     18  C   UNL     1      21.117  20.696  13.563  1.00  0.00     0.230 C 
ATOM     19  O   UNL     1      22.308  20.376  13.621  1.00  0.00    -0.274 OA
ATOM     20  N   UNL     1      20.610  21.748  14.348  1.00  0.00    -0.343 N 
BRANCH  20  21
ATOM     21  C   UNL     1      19.167  21.956  14.557  1.00  0.00     0.116 C 
ATOM     22  C   UNL     1      18.650  23.345  14.208  1.00  0.00     0.027 C 
ENDBRANCH  20  21
BRANCH  20  23
ATOM     23  C   UNL     1      21.540  22.318  15.331  1.00  0.00     0.116 C 
ATOM     24  C   UNL     1      22.238  23.570  14.817  1.00  0.00     0.027 C 
ENDBRANCH  20  23
ENDBRANCH   7  18
BRANCH   1  25
ATOM     25  C   UNL     1      18.135  21.291   9.654  1.00  0.00     0.082 C 
ATOM     26  C   UNL     1      17.704  22.546  10.408  1.00  0.00     0.021 C 
ENDBRANCH   1  25
TORSDOF 4
ENDMDL
MODEL 12
REMARK VINA RESULT:    -7.578      1.568      2.067
REMARK INTER + INTRA:          -9.776
REMARK INTER:                 -10.587
REMARK INTRA:                   0.810
REMARK UNBOUND:                -0.426
REMARK SMILES CCN(CC)C(=O)[C@@H]1C=C2c3cccc4[nH]cc(c34)C[C@H]2N(CC)C1
REMARK SMILES IDX 22 1 16 2 21 3 10 4 20 5 25 6 8 7 18 8 11 9 9 10 19 11 15 12
REMARK SMILES IDX 17 13 12 14 14 15 13 16 6 18 7 19 3 20 2 21 1 22 4 23 5 24
REMARK SMILES IDX 23 25 24 26
REMARK H PARENT 16 17
ROOT
ATOM      1  N   UNL     1      20.553  18.266  13.346  1.00  0.00    -0.295 NA
ATOM      2  N   UNL     1      19.775  24.072  11.842  1.00  0.00    -0.361 N 
ATOM      3  C   UNL     1      20.062  19.591  12.860  1.00  0.00     0.091 C 
ATOM      4  C   UNL     1      19.472  19.519  11.421  1.00  0.00    -0.026 C 
ATOM      5  C   UNL     1      21.066  20.801  13.012  1.00  0.00     0.061 C 
ATOM      6  C   UNL     1      21.297  17.564  12.288  1.00  0.00     0.102 C 
ATOM      7  C   UNL     1      20.363  17.215  11.109  1.00  0.00     0.116 C 
ATOM      8  C   UNL     1      20.453  22.042  12.444  1.00  0.00    -0.020 A 
ATOM      9  C   UNL     1      18.863  20.768  10.916  1.00  0.00    -0.011 A 
ATOM     10  C   UNL     1      19.598  18.432  10.639  1.00  0.00    -0.007 C 
ATOM     11  C   UNL     1      19.427  21.924  11.476  1.00  0.00     0.010 A 
ATOM     12  C   UNL     1      19.009  23.190  11.110  1.00  0.00     0.046 A 
ATOM     13  C   UNL     1      20.654  23.386  12.656  1.00  0.00     0.087 A 
ATOM     14  C   UNL     1      17.854  20.933   9.964  1.00  0.00     0.009 A 
ATOM     15  C   UNL     1      17.998  23.378  10.163  1.00  0.00     0.027 A 
ATOM     16  C   UNL     1      17.430  22.221   9.601  1.00  0.00     0.003 A 
ATOM     17  H   UNL     1      19.702  25.078  11.786  1.00  0.00     0.166 HD
ENDROOT
BRANCH   7  18
ATOM     18  C   UNL     1      21.220  16.613   9.978  1.00  0.00     0.230 C 
ATOM     19  O   UNL     1      21.653  15.460  10.063  1.00  0.00    -0.274 OA
ATOM     20  N   UNL     1      21.455  17.394   8.832  1.00  0.00    -0.343 N 
BRANCH  20  21
ATOM     21  C   UNL     1      21.247  18.851   8.809  1.00  0.00     0.116 C 
ATOM     22  C   UNL     1      21.591  19.540   7.496  1.00  0.00     0.027 C 
ENDBRANCH  20  21
BRANCH  20  23
ATOM     23  C   UNL     1      22.364  16.810   7.837  1.00  0.00     0.116 C 
ATOM     24  C   UNL     1      21.622  16.083   6.724  1.00  0.00     0.027 C 
ENDBRANCH  20  23
ENDBRANCH   7  18
BRANCH   1  25
ATOM     25  C   UNL     1      21.280  18.352  14.615  1.00  0.00     0.082 C 
ATOM     26  C   UNL     1      22.658  17.702  14.544  1.00  0.00     0.021 C 
ENDBRANCH   1  25
TORSDOF 4
ENDMDL
MODEL 13
REMARK VINA RESULT:    -7.526      2.678      7.919
REMARK INTER + INTRA:          -9.712
REMARK INTER:                  -9.018
REMARK INTRA:                  -0.694
REMARK UNBOUND:                -0.426
REMARK SMILES CCN(CC)C(=O)[C@@H]1C=C2c3cccc4[nH]cc(c34)C[C@H]2N(CC)C1
REMARK SMILES IDX 22 1 16 2 21 3 10 4 20 5 25 6 8 7 18 8 11 9 9 10 19 11 15 12
REMARK SMILES IDX 17 13 12 14 14 15 13 16 6 18 7 19 3 20 2 21 1 22 4 23 5 24
REMARK SMILES IDX 23 25 24 26
REMARK H PARENT 16 17
ROOT
ATOM      1  N   UNL     1      17.685  22.166  11.628  1.00  0.00    -0.295 NA
ATOM      2  N   UNL     1      21.441  17.885   9.590  1.00  0.00    -0.361 N 
ATOM      3  C   UNL     1      18.531  20.953  11.412  1.00  0.00     0.091 C 
ATOM      4  C   UNL     1      19.379  20.585  12.665  1.00  0.00    -0.026 C 
ATOM      5  C   UNL     1      19.408  20.941  10.098  1.00  0.00     0.061 C 
ATOM      6  C   UNL     1      18.445  23.215  12.326  1.00  0.00     0.102 C 
ATOM      7  C   UNL     1      18.820  22.755  13.751  1.00  0.00     0.116 C 
ATOM      8  C   UNL     1      20.227  19.690  10.047  1.00  0.00    -0.020 A 
ATOM      9  C   UNL     1      20.155  19.331  12.567  1.00  0.00    -0.011 A 
ATOM     10  C   UNL     1      19.493  21.401  13.729  1.00  0.00    -0.007 C 
ATOM     11  C   UNL     1      20.518  19.007  11.251  1.00  0.00     0.010 A 
ATOM     12  C   UNL     1      21.270  17.883  10.958  1.00  0.00     0.046 A 
ATOM     13  C   UNL     1      20.811  18.976   9.027  1.00  0.00     0.087 A 
ATOM     14  C   UNL     1      20.582  18.477  13.587  1.00  0.00     0.009 A 
ATOM     15  C   UNL     1      21.702  17.013  11.963  1.00  0.00     0.027 A 
ATOM     16  C   UNL     1      21.340  17.336  13.283  1.00  0.00     0.003 A 
ATOM     17  H   UNL     1      21.957  17.184   9.076  1.00  0.00     0.166 HD
ENDROOT
BRANCH   7  18
ATOM     18  C   UNL     1      19.730  23.829  14.379  1.00  0.00     0.230 C 
ATOM     19  O   UNL     1      20.608  24.381  13.709  1.00  0.00    -0.274 OA
ATOM     20  N   UNL     1      19.503  24.193  15.719  1.00  0.00    -0.343 N 
BRANCH  20  21
ATOM     21  C   UNL     1      18.710  23.365  16.642  1.00  0.00     0.116 C 
ATOM     22  C   UNL     1      17.355  23.938  17.033  1.00  0.00     0.027 C 
ENDBRANCH  20  21
BRANCH  20  23
ATOM     23  C   UNL     1      20.466  25.142  16.295  1.00  0.00     0.116 C 
ATOM     24  C   UNL     1      21.072  24.640  17.598  1.00  0.00     0.027 C 
ENDBRANCH  20  23
ENDBRANCH   7  18
BRANCH   1  25
ATOM     25  C   UNL     1      17.030  22.633  10.404  1.00  0.00     0.082 C 
ATOM     26  C   UNL     1      17.406  24.069  10.051  1.00  0.00     0.021 C 
ENDBRANCH   1  25
TORSDOF 4
ENDMDL
MODEL 14
REMARK VINA RESULT:    -7.486      5.866      9.181
REMARK INTER + INTRA:          -9.663
REMARK INTER:                  -9.081
REMARK INTRA:                  -0.583
REMARK UNBOUND:                -0.426
REMARK SMILES CCN(CC)C(=O)[C@@H]1C=C2c3cccc4[nH]cc(c34)C[C@H]2N(CC)C1
REMARK SMILES IDX 22 1 16 2 21 3 10 4 20 5 25 6 8 7 18 8 11 9 9 10 19 11 15 12
REMARK SMILES IDX 17 13 12 14 14 15 13 16 6 18 7 19 3 20 2 21 1 22 4 23 5 24
REMARK SMILES IDX 23 25 24 26
REMARK H PARENT 16 17
ROOT
ATOM      1  N   UNL     1      24.389  18.778  16.536  1.00  0.00    -0.295 NA
ATOM      2  N   UNL     1      20.495  21.030  12.493  1.00  0.00    -0.361 N 
ATOM      3  C   UNL     1      23.605  19.618  15.581  1.00  0.00     0.091 C 
ATOM      4  C   UNL     1      23.213  21.000  16.182  1.00  0.00    -0.026 C 
ATOM      5  C   UNL     1      22.367  18.916  14.893  1.00  0.00     0.061 C 
ATOM      6  C   UNL     1      23.811  18.846  17.888  1.00  0.00     0.102 C 
ATOM      7  C   UNL     1      23.927  20.278  18.455  1.00  0.00     0.116 C 
ATOM      8  C   UNL     1      21.662  19.892  14.005  1.00  0.00    -0.020 A 
ATOM      9  C   UNL     1      22.534  21.931  15.257  1.00  0.00    -0.011 A 
ATOM     10  C   UNL     1      23.378  21.298  17.484  1.00  0.00    -0.007 C 
ATOM     11  C   UNL     1      21.805  21.278  14.251  1.00  0.00     0.010 A 
ATOM     12  C   UNL     1      21.080  21.979  13.304  1.00  0.00     0.046 A 
ATOM     13  C   UNL     1      20.842  19.760  12.908  1.00  0.00     0.087 A 
ATOM     14  C   UNL     1      22.504  23.328  15.277  1.00  0.00     0.009 A 
ATOM     15  C   UNL     1      21.041  23.376  13.303  1.00  0.00     0.027 A 
ATOM     16  C   UNL     1      21.771  24.033  14.311  1.00  0.00     0.003 A 
ATOM     17  H   UNL     1      19.895  21.239  11.707  1.00  0.00     0.166 HD
ENDROOT
BRANCH   7  18
ATOM     18  C   UNL     1      23.184  20.323  19.805  1.00  0.00     0.230 C 
ATOM     19  O   UNL     1      22.001  20.672  19.861  1.00  0.00    -0.274 OA
ATOM     20  N   UNL     1      23.875  19.912  20.960  1.00  0.00    -0.343 N 
BRANCH  20  21
ATOM     21  C   UNL     1      25.342  19.799  21.008  1.00  0.00     0.116 C 
ATOM     22  C   UNL     1      25.967  19.989  22.382  1.00  0.00     0.027 C 
ENDBRANCH  20  21
BRANCH  20  23
ATOM     23  C   UNL     1      23.153  20.077  22.228  1.00  0.00     0.116 C 
ATOM     24  C   UNL     1      22.564  18.770  22.739  1.00  0.00     0.027 C 
ENDBRANCH  20  23
ENDBRANCH   7  18
BRANCH   1  25
ATOM     25  C   UNL     1      24.600  17.410  16.058  1.00  0.00     0.082 C 
ATOM     26  C   UNL     1      24.971  16.448  17.183  1.00  0.00     0.021 C 
ENDBRANCH   1  25
TORSDOF 4
ENDMDL
MODEL 15
REMARK VINA RESULT:    -7.463      3.685      8.323
REMARK INTER + INTRA:          -9.634
REMARK INTER:                  -8.943
REMARK INTRA:                  -0.691
REMARK UNBOUND:                -0.426
REMARK SMILES CCN(CC)C(=O)[C@@H]1C=C2c3cccc4[nH]cc(c34)C[C@H]2N(CC)C1
REMARK SMILES IDX 22 1 16 2 21 3 10 4 20 5 25 6 8 7 18 8 11 9 9 10 19 11 15 12
REMARK SMILES IDX 17 13 12 14 14 15 13 16 6 18 7 19 3 20 2 21 1 22 4 23 5 24
REMARK SMILES IDX 23 25 24 26
REMARK H PARENT 16 17
ROOT
ATOM      1  N   UNL     1      17.297  22.343  14.739  1.00  0.00    -0.295 NA
ATOM      2  N   UNL     1      18.637  20.583   9.110  1.00  0.00    -0.361 N 
ATOM      3  C   UNL     1      17.839  21.697  13.506  1.00  0.00     0.091 C 
ATOM      4  C   UNL     1      19.394  21.605  13.513  1.00  0.00    -0.026 C 
ATOM      5  C   UNL     1      17.301  22.261  12.132  1.00  0.00     0.061 C 
ATOM      6  C   UNL     1      18.095  23.526  15.104  1.00  0.00     0.102 C 
ATOM      7  C   UNL     1      19.531  23.112  15.490  1.00  0.00     0.116 C 
ATOM      8  C   UNL     1      17.965  21.548  10.997  1.00  0.00    -0.020 A 
ATOM      9  C   UNL     1      19.997  20.876  12.377  1.00  0.00    -0.011 A 
ATOM     10  C   UNL     1      20.154  22.237  14.426  1.00  0.00    -0.007 C 
ATOM     11  C   UNL     1      19.219  20.928  11.211  1.00  0.00     0.010 A 
ATOM     12  C   UNL     1      19.628  20.327  10.034  1.00  0.00     0.046 A 
ATOM     13  C   UNL     1      17.623  21.323   9.684  1.00  0.00     0.087 A 
ATOM     14  C   UNL     1      21.214  20.193  12.316  1.00  0.00     0.009 A 
ATOM     15  C   UNL     1      20.839  19.634   9.953  1.00  0.00     0.027 A 
ATOM     16  C   UNL     1      21.621  19.581  11.121  1.00  0.00     0.003 A 
ATOM     17  H   UNL     1      18.657  20.273   8.149  1.00  0.00     0.166 HD
ENDROOT
BRANCH   7  18
ATOM     18  C   UNL     1      20.355  24.394  15.723  1.00  0.00     0.230 C 
ATOM     19  O   UNL     1      20.930  24.951  14.784  1.00  0.00    -0.274 OA
ATOM     20  N   UNL     1      20.395  24.934  17.022  1.00  0.00    -0.343 N 
BRANCH  20  21
ATOM     21  C   UNL     1      20.010  24.160  18.214  1.00  0.00     0.116 C 
ATOM     22  C   UNL     1      18.617  24.445  18.756  1.00  0.00     0.027 C 
ENDBRANCH  20  21
BRANCH  20  23
ATOM     23  C   UNL     1      21.279  26.092  17.205  1.00  0.00     0.116 C 
ATOM     24  C   UNL     1      20.511  27.399  17.331  1.00  0.00     0.027 C 
ENDBRANCH  20  23
ENDBRANCH   7  18
BRANCH   1  25
ATOM     25  C   UNL     1      15.858  22.608  14.664  1.00  0.00     0.082 C 
ATOM     26  C   UNL     1      15.234  22.836  16.038  1.00  0.00     0.021 C 
ENDBRANCH   1  25
TORSDOF 4
ENDMDL
MODEL 16
REMARK VINA RESULT:    -7.391      2.276      2.931
REMARK INTER + INTRA:          -9.546
REMARK INTER:                  -8.860
REMARK INTRA:                  -0.686
REMARK UNBOUND:                -0.426
REMARK SMILES CCN(CC)C(=O)[C@@H]1C=C2c3cccc4[nH]cc(c34)C[C@H]2N(CC)C1
REMARK SMILES IDX 22 1 16 2 21 3 10 4 20 5 25 6 8 7 18 8 11 9 9 10 19 11 15 12
REMARK SMILES IDX 17 13 12 14 14 15 13 16 6 18 7 19 3 20 2 21 1 22 4 23 5 24
REMARK SMILES IDX 23 25 24 26
REMARK H PARENT 16 17
ROOT
ATOM      1  N   UNL     1      22.140  19.264  14.205  1.00  0.00    -0.295 NA
ATOM      2  N   UNL     1      19.151  24.426  15.207  1.00  0.00    -0.361 N 
ATOM      3  C   UNL     1      21.131  20.337  14.456  1.00  0.00     0.091 C 
ATOM      4  C   UNL     1      19.904  20.239  13.502  1.00  0.00    -0.026 C 
ATOM      5  C   UNL     1      21.690  21.814  14.527  1.00  0.00     0.061 C 
ATOM      6  C   UNL     1      22.354  19.075  12.761  1.00  0.00     0.102 C 
ATOM      7  C   UNL     1      21.067  18.553  12.087  1.00  0.00     0.116 C 
ATOM      8  C   UNL     1      20.561  22.772  14.738  1.00  0.00    -0.020 A 
ATOM      9  C   UNL     1      18.811  21.198  13.765  1.00  0.00    -0.011 A 
ATOM     10  C   UNL     1      19.876  19.415  12.439  1.00  0.00    -0.007 C 
ATOM     11  C   UNL     1      19.252  22.392  14.355  1.00  0.00     0.010 A 
ATOM     12  C   UNL     1      18.381  23.424  14.654  1.00  0.00     0.046 A 
ATOM     13  C   UNL     1      20.475  24.040  15.264  1.00  0.00     0.087 A 
ATOM     14  C   UNL     1      17.448  21.080  13.481  1.00  0.00     0.009 A 
ATOM     15  C   UNL     1      17.013  23.324  14.383  1.00  0.00     0.027 A 
ATOM     16  C   UNL     1      16.568  22.128  13.792  1.00  0.00     0.003 A 
ATOM     17  H   UNL     1      18.791  25.315  15.523  1.00  0.00     0.166 HD
ENDROOT
BRANCH   7  18
ATOM     18  C   UNL     1      21.305  18.509  10.565  1.00  0.00     0.230 C 
ATOM     19  O   UNL     1      21.485  19.550   9.926  1.00  0.00    -0.274 OA
ATOM     20  N   UNL     1      21.356  17.252   9.934  1.00  0.00    -0.343 N 
BRANCH  20  21
ATOM     21  C   UNL     1      20.840  16.027  10.566  1.00  0.00     0.116 C 
ATOM     22  C   UNL     1      19.336  15.818  10.454  1.00  0.00     0.027 C 
ENDBRANCH  20  21
BRANCH  20  23
ATOM     23  C   UNL     1      21.479  17.277   8.470  1.00  0.00     0.116 C 
ATOM     24  C   UNL     1      22.388  16.177   7.942  1.00  0.00     0.027 C 
ENDBRANCH  20  23
ENDBRANCH   7  18
BRANCH   1  25
ATOM     25  C   UNL     1      23.380  19.454  14.961  1.00  0.00     0.082 C 
ATOM     26  C   UNL     1      24.251  18.201  14.980  1.00  0.00     0.021 C 
ENDBRANCH   1  25
TORSDOF 4
ENDMDL
MODEL 17
REMARK VINA RESULT:    -7.378      4.217      6.536
REMARK INTER + INTRA:          -9.530
REMARK INTER:                  -8.917
REMARK INTRA:                  -0.613
REMARK UNBOUND:                -0.426
REMARK SMILES CCN(CC)C(=O)[C@@H]1C=C2c3cccc4[nH]cc(c34)C[C@H]2N(CC)C1
REMARK SMILES IDX 22 1 16 2 21 3 10 4 20 5 25 6 8 7 18 8 11 9 9 10 19 11 15 12
REMARK SMILES IDX 17 13 12 14 14 15 13 16 6 18 7 19 3 20 2 21 1 22 4 23 5 24
REMARK SMILES IDX 23 25 24 26
REMARK H PARENT 16 17
ROOT
ATOM      1  N   UNL     1      21.667  22.222  16.067  1.00  0.00    -0.295 NA
ATOM      2  N   UNL     1      18.888  22.943  10.744  1.00  0.00    -0.361 N 
ATOM      3  C   UNL     1      20.808  22.127  14.849  1.00  0.00     0.091 C 
ATOM      4  C   UNL     1      20.751  20.683  14.268  1.00  0.00    -0.026 C 
ATOM      5  C   UNL     1      21.086  23.193  13.717  1.00  0.00     0.061 C 
ATOM      6  C   UNL     1      22.914  21.460  15.889  1.00  0.00     0.102 C 
ATOM      7  C   UNL     1      22.612  19.952  15.753  1.00  0.00     0.116 C 
ATOM      8  C   UNL     1      20.183  22.942  12.552  1.00  0.00    -0.020 A 
ATOM      9  C   UNL     1      19.830  20.487  13.129  1.00  0.00    -0.011 A 
ATOM     10  C   UNL     1      21.562  19.697  14.695  1.00  0.00    -0.007 C 
ATOM     11  C   UNL     1      19.641  21.647  12.364  1.00  0.00     0.010 A 
ATOM     12  C   UNL     1      18.834  21.657  11.241  1.00  0.00     0.046 A 
ATOM     13  C   UNL     1      19.702  23.730  11.532  1.00  0.00     0.087 A 
ATOM     14  C   UNL     1      19.174  19.324  12.718  1.00  0.00     0.009 A 
ATOM     15  C   UNL     1      18.164  20.507  10.815  1.00  0.00     0.027 A 
ATOM     16  C   UNL     1      18.352  19.342  11.580  1.00  0.00     0.003 A 
ATOM     17  H   UNL     1      18.399  23.258   9.918  1.00  0.00     0.166 HD
ENDROOT
BRANCH   7  18
ATOM     18  C   UNL     1      23.931  19.225  15.428  1.00  0.00     0.230 C 
ATOM     19  O   UNL     1      24.297  19.077  14.258  1.00  0.00    -0.274 OA
ATOM     20  N   UNL     1      24.726  18.776  16.499  1.00  0.00    -0.343 N 
BRANCH  20  21
ATOM     21  C   UNL     1      24.205  18.635  17.868  1.00  0.00     0.116 C 
ATOM     22  C   UNL     1      24.498  19.801  18.802  1.00  0.00     0.027 C 
ENDBRANCH  20  21
BRANCH  20  23
ATOM     23  C   UNL     1      25.916  17.998  16.129  1.00  0.00     0.116 C 
ATOM     24  C   UNL     1      26.346  17.032  17.224  1.00  0.00     0.027 C 
ENDBRANCH  20  23
ENDBRANCH   7  18
BRANCH   1  25
ATOM     25  C   UNL     1      21.882  23.601  16.512  1.00  0.00     0.082 C 
ATOM     26  C   UNL     1      20.850  24.051  17.542  1.00  0.00     0.021 C 
ENDBRANCH   1  25
TORSDOF 4
ENDMDL
MODEL 18
REMARK VINA RESULT:    -7.318      4.019      7.970
REMARK INTER + INTRA:          -9.456
REMARK INTER:                  -8.756
REMARK INTRA:                  -0.700
REMARK UNBOUND:                -0.426
REMARK SMILES CCN(CC)C(=O)[C@@H]1C=C2c3cccc4[nH]cc(c34)C[C@H]2N(CC)C1
REMARK SMILES IDX 22 1 16 2 21 3 10 4 20 5 25 6 8 7 18 8 11 9 9 10 19 11 15 12
REMARK SMILES IDX 17 13 12 14 14 15 13 16 6 18 7 19 3 20 2 21 1 22 4 23 5 24
REMARK SMILES IDX 23 25 24 26
REMARK H PARENT 16 17
ROOT
ATOM      1  N   UNL     1      21.701  21.844  14.218  1.00  0.00    -0.295 NA
ATOM      2  N   UNL     1      17.999  19.483  10.058  1.00  0.00    -0.361 N 
ATOM      3  C   UNL     1      20.819  21.564  13.044  1.00  0.00     0.091 C 
ATOM      4  C   UNL     1      19.788  22.702  12.786  1.00  0.00    -0.026 C 
ATOM      5  C   UNL     1      20.129  20.143  13.018  1.00  0.00     0.061 C 
ATOM      6  C   UNL     1      20.920  22.388  15.340  1.00  0.00     0.102 C 
ATOM      7  C   UNL     1      20.328  23.765  14.971  1.00  0.00     0.116 C 
ATOM      8  C   UNL     1      19.249  20.030  11.814  1.00  0.00    -0.020 A 
ATOM      9  C   UNL     1      18.957  22.549  11.573  1.00  0.00    -0.011 A 
ATOM     10  C   UNL     1      19.583  23.706  13.657  1.00  0.00    -0.007 C 
ATOM     11  C   UNL     1      18.756  21.210  11.206  1.00  0.00     0.010 A 
ATOM     12  C   UNL     1      17.983  20.861  10.113  1.00  0.00     0.046 A 
ATOM     13  C   UNL     1      18.765  18.969  11.084  1.00  0.00     0.087 A 
ATOM     14  C   UNL     1      18.345  23.534  10.795  1.00  0.00     0.009 A 
ATOM     15  C   UNL     1      17.366  21.831   9.318  1.00  0.00     0.027 A 
ATOM     16  C   UNL     1      17.566  23.175   9.684  1.00  0.00     0.003 A 
ATOM     17  H   UNL     1      17.514  18.932   9.363  1.00  0.00     0.166 HD
ENDROOT
BRANCH   7  18
ATOM     18  C   UNL     1      19.410  24.219  16.123  1.00  0.00     0.230 C 
ATOM     19  O   UNL     1      18.264  23.771  16.228  1.00  0.00    -0.274 OA
ATOM     20  N   UNL     1      19.927  25.119  17.073  1.00  0.00    -0.343 N 
BRANCH  20  21
ATOM     21  C   UNL     1      21.139  25.919  16.829  1.00  0.00     0.116 C 
ATOM     22  C   UNL     1      20.914  27.418  16.692  1.00  0.00     0.027 C 
ENDBRANCH  20  21
BRANCH  20  23
ATOM     23  C   UNL     1      18.975  25.597  18.084  1.00  0.00     0.116 C 
ATOM     24  C   UNL     1      19.383  25.210  19.498  1.00  0.00     0.027 C 
ENDBRANCH  20  23
ENDBRANCH   7  18
BRANCH   1  25
ATOM     25  C   UNL     1      22.544  20.705  14.588  1.00  0.00     0.082 C 
ATOM     26  C   UNL     1      23.058  20.800  16.022  1.00  0.00     0.021 C 
ENDBRANCH   1  25
TORSDOF 4
ENDMDL
MODEL 19
REMARK VINA RESULT:    -7.290      4.228      6.889
REMARK INTER + INTRA:          -9.421
REMARK INTER:                  -8.908
REMARK INTRA:                  -0.513
REMARK UNBOUND:                -0.426
REMARK SMILES CCN(CC)C(=O)[C@@H]1C=C2c3cccc4[nH]cc(c34)C[C@H]2N(CC)C1
REMARK SMILES IDX 22 1 16 2 21 3 10 4 20 5 25 6 8 7 18 8 11 9 9 10 19 11 15 12
REMARK SMILES IDX 17 13 12 14 14 15 13 16 6 18 7 19 3 20 2 21 1 22 4 23 5 24
REMARK SMILES IDX 23 25 24 26
REMARK H PARENT 16 17
ROOT
ATOM      1  N   UNL     1      21.519  20.635  13.474  1.00  0.00    -0.295 NA
ATOM      2  N   UNL     1      17.600  24.588  15.841  1.00  0.00    -0.361 N 
ATOM      3  C   UNL     1      20.824  21.809  14.083  1.00  0.00     0.091 C 
ATOM      4  C   UNL     1      21.581  22.378  15.319  1.00  0.00    -0.026 C 
ATOM      5  C   UNL     1      19.283  21.625  14.384  1.00  0.00     0.061 C 
ATOM      6  C   UNL     1      22.004  19.716  14.517  1.00  0.00     0.102 C 
ATOM      7  C   UNL     1      23.089  20.398  15.378  1.00  0.00     0.116 C 
ATOM      8  C   UNL     1      18.743  22.862  15.029  1.00  0.00    -0.020 A 
ATOM      9  C   UNL     1      21.013  23.610  15.906  1.00  0.00    -0.011 A 
ATOM     10  C   UNL     1      22.618  21.740  15.891  1.00  0.00    -0.007 C 
ATOM     11  C   UNL     1      19.629  23.729  15.711  1.00  0.00     0.010 A 
ATOM     12  C   UNL     1      18.912  24.802  16.210  1.00  0.00     0.046 A 
ATOM     13  C   UNL     1      17.487  23.415  15.123  1.00  0.00     0.087 A 
ATOM     14  C   UNL     1      21.656  24.617  16.630  1.00  0.00     0.009 A 
ATOM     15  C   UNL     1      19.536  25.823  16.932  1.00  0.00     0.027 A 
ATOM     16  C   UNL     1      20.924  25.706  17.129  1.00  0.00     0.003 A 
ATOM     17  H   UNL     1      16.834  25.206  16.069  1.00  0.00     0.166 HD
ENDROOT
BRANCH   7  18
ATOM     18  C   UNL     1      23.455  19.446  16.533  1.00  0.00     0.230 C 
ATOM     19  O   UNL     1      22.888  19.536  17.626  1.00  0.00    -0.274 OA
ATOM     20  N   UNL     1      24.417  18.447  16.295  1.00  0.00    -0.343 N 
BRANCH  20  21
ATOM     21  C   UNL     1      25.339  18.492  15.148  1.00  0.00     0.116 C 
ATOM     22  C   UNL     1      26.819  18.447  15.499  1.00  0.00     0.027 C 
ENDBRANCH  20  21
BRANCH  20  23
ATOM     23  C   UNL     1      24.802  17.640  17.460  1.00  0.00     0.116 C 
ATOM     24  C   UNL     1      24.754  16.145  17.176  1.00  0.00     0.027 C 
ENDBRANCH  20  23
ENDBRANCH   7  18
BRANCH   1  25
ATOM     25  C   UNL     1      20.727  19.975  12.434  1.00  0.00     0.082 C 
ATOM     26  C   UNL     1      21.537  19.700  11.170  1.00  0.00     0.021 C 
ENDBRANCH   1  25
TORSDOF 4
ENDMDL
MODEL 20
REMARK VINA RESULT:    -7.157      2.893      7.282
REMARK INTER + INTRA:          -9.257
REMARK INTER:                  -9.222
REMARK INTRA:                  -0.035
REMARK UNBOUND:                -0.426
REMARK SMILES CCN(CC)C(=O)[C@@H]1C=C2c3cccc4[nH]cc(c34)C[C@H]2N(CC)C1
REMARK SMILES IDX 22 1 16 2 21 3 10 4 20 5 25 6 8 7 18 8 11 9 9 10 19 11 15 12
REMARK SMILES IDX 17 13 12 14 14 15 13 16 6 18 7 19 3 20 2 21 1 22 4 23 5 24
REMARK SMILES IDX 23 25 24 26
REMARK H PARENT 16 17
ROOT
ATOM      1  N   UNL     1      17.368  22.361  11.275  1.00  0.00    -0.295 NA
ATOM      2  N   UNL     1      21.243  18.088   9.455  1.00  0.00    -0.361 N 
ATOM      3  C   UNL     1      18.195  21.131  11.084  1.00  0.00     0.091 C 
ATOM      4  C   UNL     1      18.831  20.625  12.412  1.00  0.00    -0.026 C 
ATOM      5  C   UNL     1      19.261  21.185   9.918  1.00  0.00     0.061 C 
ATOM      6  C   UNL     1      18.048  23.315  12.166  1.00  0.00     0.102 C 
ATOM      7  C   UNL     1      18.187  22.724  13.586  1.00  0.00     0.116 C 
ATOM      8  C   UNL     1      20.035  19.905   9.881  1.00  0.00    -0.020 A 
ATOM      9  C   UNL     1      19.571  19.349  12.322  1.00  0.00    -0.011 A 
ATOM     10  C   UNL     1      18.809  21.347  13.548  1.00  0.00    -0.007 C 
ATOM     11  C   UNL     1      20.118  19.114  11.052  1.00  0.00     0.010 A 
ATOM     12  C   UNL     1      20.867  17.984  10.778  1.00  0.00     0.046 A 
ATOM     13  C   UNL     1      20.743  19.249   8.901  1.00  0.00     0.087 A 
ATOM     14  C   UNL     1      19.809  18.397  13.317  1.00  0.00     0.009 A 
ATOM     15  C   UNL     1      21.113  17.018  11.757  1.00  0.00     0.027 A 
ATOM     16  C   UNL     1      20.565  17.250  13.031  1.00  0.00     0.003 A 
ATOM     17  H   UNL     1      21.808  17.408   8.965  1.00  0.00     0.166 HD
ENDROOT
BRANCH   7  18
ATOM     18  C   UNL     1      19.027  23.702  14.432  1.00  0.00     0.230 C 
ATOM     19  O   UNL     1      18.514  24.326  15.366  1.00  0.00    -0.274 OA
ATOM     20  N   UNL     1      20.398  23.827  14.142  1.00  0.00    -0.343 N 
BRANCH  20  21
ATOM     21  C   UNL     1      20.984  23.369  12.872  1.00  0.00     0.116 C 
ATOM     22  C   UNL     1      22.201  22.464  13.002  1.00  0.00     0.027 C 
ENDBRANCH  20  21
BRANCH  20  23
ATOM     23  C   UNL     1      21.122  24.848  14.910  1.00  0.00     0.116 C 
ATOM     24  C   UNL     1      21.812  24.275  16.139  1.00  0.00     0.027 C 
ENDBRANCH  20  23
ENDBRANCH   7  18
BRANCH   1  25
ATOM     25  C   UNL     1      16.922  22.954  10.012  1.00  0.00     0.082 C 
ATOM     26  C   UNL     1      17.379  24.401   9.853  1.00  0.00     0.021 C 
ENDBRANCH   1  25
TORSDOF 4
ENDMDL
