MODEL 1
REMARK VINA RESULT:    -9.308      0.000      0.000
REMARK INTER + INTRA:         -12.071
REMARK INTER:                 -11.484
REMARK INTRA:                  -0.587
REMARK UNBOUND:                -0.587
REMARK SMILES CCN(CC)C(=O)[C@@H]1C=C2c3cccc4[nH]cc(c34)C[C@H]2N(CC)C1
REMARK SMILES IDX 22 1 16 2 21 3 10 4 20 5 25 6 8 7 18 8 11 9 9 10 19 11 15 12
REMARK SMILES IDX 17 13 12 14 14 15 13 16 6 18 7 19 3 20 2 21 1 22 4 23 5 24
REMARK SMILES IDX 23 25 24 26
REMARK H PARENT 16 17
ROOT
ATOM      1  N   UNL     1     105.351 135.995 125.893  1.00  0.00    -0.295 NA
ATOM      2  N   UNL     1     108.387 141.112 126.983  1.00  0.00    -0.361 N 
ATOM      3  C   UNL     1     106.287 137.160 125.899  1.00  0.00     0.091 C 
ATOM      4  C   UNL     1     107.780 136.728 125.794  1.00  0.00    -0.026 C 
ATOM      5  C   UNL     1     106.073 138.218 127.053  1.00  0.00     0.061 C 
ATOM      6  C   UNL     1     105.858 134.913 126.752  1.00  0.00     0.102 C 
ATOM      7  C   UNL     1     107.177 134.345 126.185  1.00  0.00     0.116 C 
ATOM      8  C   UNL     1     107.107 139.294 126.951  1.00  0.00    -0.020 A 
ATOM      9  C   UNL     1     108.758 137.830 125.679  1.00  0.00    -0.011 A 
ATOM     10  C   UNL     1     108.174 135.447 125.909  1.00  0.00    -0.007 C 
ATOM     11  C   UNL     1     108.326 139.019 126.287  1.00  0.00     0.010 A 
ATOM     12  C   UNL     1     109.114 140.155 126.307  1.00  0.00     0.046 A 
ATOM     13  C   UNL     1     107.167 140.600 127.377  1.00  0.00     0.087 A 
ATOM     14  C   UNL     1     110.025 137.825 125.090  1.00  0.00     0.009 A 
ATOM     15  C   UNL     1     110.382 140.173 125.719  1.00  0.00     0.027 A 
ATOM     16  C   UNL     1     110.817 138.983 125.109  1.00  0.00     0.003 A 
ATOM     17  H   UNL     1     108.707 142.053 127.164  1.00  0.00     0.166 HD
ENDROOT
BRANCH   7  18
ATOM     18  C   UNL     1     107.731 133.319 127.194  1.00  0.00     0.230 C 
ATOM     19  O   UNL     1     108.261 133.693 128.245  1.00  0.00    -0.274 OA
ATOM     20  N   UNL     1     107.576 131.951 126.907  1.00  0.00    -0.343 N 
BRANCH  20  21
ATOM     21  C   UNL     1     107.255 131.455 125.558  1.00  0.00     0.116 C 
ATOM     22  C   UNL     1     108.379 131.566 124.537  1.00  0.00     0.027 C 
ENDBRANCH  20  21
BRANCH  20  23
ATOM     23  C   UNL     1     108.217 131.024 127.849  1.00  0.00     0.116 C 
ATOM     24  C   UNL     1     107.997 129.565 127.474  1.00  0.00     0.027 C 
ENDBRANCH  20  23
ENDBRANCH   7  18
BRANCH   1  25
ATOM     25  C   UNL     1     103.965 136.372 126.181  1.00  0.00     0.082 C 
ATOM     26  C   UNL     1     103.250 135.345 127.055  1.00  0.00     0.021 C 
ENDBRANCH   1  25
TORSDOF 4
ENDMDL
MODEL 2
REMARK VINA RESULT:    -8.282      1.565      2.083
REMARK INTER + INTRA:         -10.805
REMARK INTER:                 -10.627
REMARK INTRA:                  -0.179
REMARK UNBOUND:                -0.587
REMARK SMILES CCN(CC)C(=O)[C@@H]1C=C2c3cccc4[nH]cc(c34)C[C@H]2N(CC)C1
REMARK SMILES IDX 22 1 16 2 21 3 10 4 20 5 25 6 8 7 18 8 11 9 9 10 19 11 15 12
REMARK SMILES IDX 17 13 12 14 14 15 13 16 6 18 7 19 3 20 2 21 1 22 4 23 5 24
REMARK SMILES IDX 23 25 24 26
REMARK H PARENT 16 17
ROOT
ATOM      1  N   UNL     1     106.270 138.127 126.665  1.00  0.00    -0.295 NA
ATOM      2  N   UNL     1     111.243 141.549 126.295  1.00  0.00    -0.361 N 
ATOM      3  C   UNL     1     107.544 138.808 126.283  1.00  0.00     0.091 C 
ATOM      4  C   UNL     1     108.643 137.805 125.824  1.00  0.00    -0.026 C 
ATOM      5  C   UNL     1     108.113 139.852 127.323  1.00  0.00     0.061 C 
ATOM      6  C   UNL     1     106.541 136.925 127.471  1.00  0.00     0.102 C 
ATOM      7  C   UNL     1     107.299 135.872 126.634  1.00  0.00     0.116 C 
ATOM      8  C   UNL     1     109.406 140.412 126.821  1.00  0.00    -0.020 A 
ATOM      9  C   UNL     1     109.894 138.412 125.322  1.00  0.00    -0.011 A 
ATOM     10  C   UNL     1     108.518 136.474 125.971  1.00  0.00    -0.007 C 
ATOM     11  C   UNL     1     110.163 139.669 125.885  1.00  0.00     0.010 A 
ATOM     12  C   UNL     1     111.302 140.384 125.559  1.00  0.00     0.046 A 
ATOM     13  C   UNL     1     110.096 141.577 127.063  1.00  0.00     0.087 A 
ATOM     14  C   UNL     1     110.821 137.896 124.413  1.00  0.00     0.009 A 
ATOM     15  C   UNL     1     112.239 139.888 124.649  1.00  0.00     0.027 A 
ATOM     16  C   UNL     1     111.971 138.629 124.083  1.00  0.00     0.003 A 
ATOM     17  H   UNL     1     111.944 142.276 126.273  1.00  0.00     0.166 HD
ENDROOT
BRANCH   7  18
ATOM     18  C   UNL     1     107.678 134.702 127.562  1.00  0.00     0.230 C 
ATOM     19  O   UNL     1     108.185 134.914 128.668  1.00  0.00    -0.274 OA
ATOM     20  N   UNL     1     107.391 133.392 127.135  1.00  0.00    -0.343 N 
BRANCH  20  21
ATOM     21  C   UNL     1     107.096 133.063 125.731  1.00  0.00     0.116 C 
ATOM     22  C   UNL     1     108.253 133.251 124.760  1.00  0.00     0.027 C 
ENDBRANCH  20  21
BRANCH  20  23
ATOM     23  C   UNL     1     107.870 132.315 128.012  1.00  0.00     0.116 C 
ATOM     24  C   UNL     1     108.529 131.183 127.238  1.00  0.00     0.027 C 
ENDBRANCH  20  23
ENDBRANCH   7  18
BRANCH   1  25
ATOM     25  C   UNL     1     105.295 139.034 127.276  1.00  0.00     0.082 C 
ATOM     26  C   UNL     1     104.008 138.321 127.681  1.00  0.00     0.021 C 
ENDBRANCH   1  25
TORSDOF 4
ENDMDL
MODEL 3
REMARK VINA RESULT:    -8.113      2.782      5.404
REMARK INTER + INTRA:         -10.597
REMARK INTER:                 -10.036
REMARK INTRA:                  -0.561
REMARK UNBOUND:                -0.587
REMARK SMILES CCN(CC)C(=O)[C@@H]1C=C2c3cccc4[nH]cc(c34)C[C@H]2N(CC)C1
REMARK SMILES IDX 22 1 16 2 21 3 10 4 20 5 25 6 8 7 18 8 11 9 9 10 19 11 15 12
REMARK SMILES IDX 17 13 12 14 14 15 13 16 6 18 7 19 3 20 2 21 1 22 4 23 5 24
REMARK SMILES IDX 23 25 24 26
REMARK H PARENT 16 17
ROOT
ATOM      1  N   UNL     1     106.620 134.006 127.960  1.00  0.00    -0.295 NA
ATOM      2  N   UNL     1     110.275 137.878 125.090  1.00  0.00    -0.361 N 
ATOM      3  C   UNL     1     107.556 135.099 127.558  1.00  0.00     0.091 C 
ATOM      4  C   UNL     1     107.132 136.487 128.122  1.00  0.00    -0.026 C 
ATOM      5  C   UNL     1     107.905 135.184 126.019  1.00  0.00     0.061 C 
ATOM      6  C   UNL     1     105.220 134.446 127.837  1.00  0.00     0.102 C 
ATOM      7  C   UNL     1     104.922 135.588 128.833  1.00  0.00     0.116 C 
ATOM      8  C   UNL     1     108.812 136.348 125.770  1.00  0.00    -0.020 A 
ATOM      9  C   UNL     1     108.072 137.598 127.861  1.00  0.00    -0.011 A 
ATOM     10  C   UNL     1     105.942 136.697 128.714  1.00  0.00    -0.007 C 
ATOM     11  C   UNL     1     108.823 137.424 126.689  1.00  0.00     0.010 A 
ATOM     12  C   UNL     1     109.738 138.369 126.262  1.00  0.00     0.046 A 
ATOM     13  C   UNL     1     109.721 136.652 124.783  1.00  0.00     0.087 A 
ATOM     14  C   UNL     1     108.275 138.770 128.594  1.00  0.00     0.009 A 
ATOM     15  C   UNL     1     109.960 139.546 126.982  1.00  0.00     0.027 A 
ATOM     16  C   UNL     1     109.209 139.723 128.158  1.00  0.00     0.003 A 
ATOM     17  H   UNL     1     110.973 138.354 124.537  1.00  0.00     0.166 HD
ENDROOT
BRANCH   7  18
ATOM     18  C   UNL     1     103.494 136.100 128.563  1.00  0.00     0.230 C 
ATOM     19  O   UNL     1     102.986 135.988 127.443  1.00  0.00    -0.274 OA
ATOM     20  N   UNL     1     102.771 136.655 129.635  1.00  0.00    -0.343 N 
BRANCH  20  21
ATOM     21  C   UNL     1     103.419 137.102 130.880  1.00  0.00     0.116 C 
ATOM     22  C   UNL     1     103.481 138.610 131.078  1.00  0.00     0.027 C 
ENDBRANCH  20  21
BRANCH  20  23
ATOM     23  C   UNL     1     101.460 137.223 129.296  1.00  0.00     0.116 C 
ATOM     24  C   UNL     1     100.306 136.347 129.763  1.00  0.00     0.027 C 
ENDBRANCH  20  23
ENDBRANCH   7  18
BRANCH   1  25
ATOM     25  C   UNL     1     106.896 132.736 127.284  1.00  0.00     0.082 C 
ATOM     26  C   UNL     1     108.158 132.058 127.809  1.00  0.00     0.021 C 
ENDBRANCH   1  25
TORSDOF 4
ENDMDL
MODEL 4
REMARK VINA RESULT:    -8.112      3.132      5.953
REMARK INTER + INTRA:         -10.596
REMARK INTER:                  -9.823
REMARK INTRA:                  -0.773
REMARK UNBOUND:                -0.587
REMARK SMILES CCN(CC)C(=O)[C@@H]1C=C2c3cccc4[nH]cc(c34)C[C@H]2N(CC)C1
REMARK SMILES IDX 22 1 16 2 21 3 10 4 20 5 25 6 8 7 18 8 11 9 9 10 19 11 15 12
REMARK SMILES IDX 17 13 12 14 14 15 13 16 6 18 7 19 3 20 2 21 1 22 4 23 5 24
REMARK SMILES IDX 23 25 24 26
REMARK H PARENT 16 17
ROOT
ATOM      1  N   UNL     1     106.658 135.822 128.697  1.00  0.00    -0.295 NA
ATOM      2  N   UNL     1     110.696 137.822 124.662  1.00  0.00    -0.361 N 
ATOM      3  C   UNL     1     107.727 136.542 127.941  1.00  0.00     0.091 C 
ATOM      4  C   UNL     1     107.556 138.089 127.989  1.00  0.00    -0.026 C 
ATOM      5  C   UNL     1     107.997 136.037 126.468  1.00  0.00     0.061 C 
ATOM      6  C   UNL     1     105.339 136.417 128.430  1.00  0.00     0.102 C 
ATOM      7  C   UNL     1     105.278 137.863 128.968  1.00  0.00     0.116 C 
ATOM      8  C   UNL     1     109.056 136.879 125.830  1.00  0.00    -0.020 A 
ATOM      9  C   UNL     1     108.639 138.872 127.359  1.00  0.00    -0.011 A 
ATOM     10  C   UNL     1     106.448 138.681 128.471  1.00  0.00    -0.007 C 
ATOM     11  C   UNL     1     109.285 138.187 126.319  1.00  0.00     0.010 A 
ATOM     12  C   UNL     1     110.309 138.765 125.591  1.00  0.00     0.046 A 
ATOM     13  C   UNL     1     109.943 136.673 124.799  1.00  0.00     0.087 A 
ATOM     14  C   UNL     1     109.062 140.174 127.639  1.00  0.00     0.009 A 
ATOM     15  C   UNL     1     110.751 140.063 125.858  1.00  0.00     0.027 A 
ATOM     16  C   UNL     1     110.105 140.753 126.900  1.00  0.00     0.003 A 
ATOM     17  H   UNL     1     111.427 137.958 123.978  1.00  0.00     0.166 HD
ENDROOT
BRANCH   7  18
ATOM     18  C   UNL     1     103.932 138.479 128.538  1.00  0.00     0.230 C 
ATOM     19  O   UNL     1     103.564 138.428 127.360  1.00  0.00    -0.274 OA
ATOM     20  N   UNL     1     103.118 139.059 129.528  1.00  0.00    -0.343 N 
BRANCH  20  21
ATOM     21  C   UNL     1     103.630 139.432 130.857  1.00  0.00     0.116 C 
ATOM     22  C   UNL     1     103.915 140.915 131.054  1.00  0.00     0.027 C 
ENDBRANCH  20  21
BRANCH  20  23
ATOM     23  C   UNL     1     101.900 139.724 129.044  1.00  0.00     0.116 C 
ATOM     24  C   UNL     1     100.640 139.190 129.710  1.00  0.00     0.027 C 
ENDBRANCH  20  23
ENDBRANCH   7  18
BRANCH   1  25
ATOM     25  C   UNL     1     106.697 134.370 128.504  1.00  0.00     0.082 C 
ATOM     26  C   UNL     1     105.356 133.807 128.042  1.00  0.00     0.021 C 
ENDBRANCH   1  25
TORSDOF 4
ENDMDL
MODEL 5
REMARK VINA RESULT:    -7.739      1.606      2.348
REMARK INTER + INTRA:         -10.136
REMARK INTER:                  -9.480
REMARK INTRA:                  -0.655
REMARK UNBOUND:                -0.587
REMARK SMILES CCN(CC)C(=O)[C@@H]1C=C2c3cccc4[nH]cc(c34)C[C@H]2N(CC)C1
REMARK SMILES IDX 22 1 16 2 21 3 10 4 20 5 25 6 8 7 18 8 11 9 9 10 19 11 15 12
REMARK SMILES IDX 17 13 12 14 14 15 13 16 6 18 7 19 3 20 2 21 1 22 4 23 5 24
REMARK SMILES IDX 23 25 24 26
REMARK H PARENT 16 17
ROOT
ATOM      1  N   UNL     1     103.887 135.144 127.190  1.00  0.00    -0.295 NA
ATOM      2  N   UNL     1     105.339 140.719 129.032  1.00  0.00    -0.361 N 
ATOM      3  C   UNL     1     104.396 136.540 127.344  1.00  0.00     0.091 C 
ATOM      4  C   UNL     1     105.895 136.678 126.944  1.00  0.00    -0.026 C 
ATOM      5  C   UNL     1     104.102 137.239 128.730  1.00  0.00     0.061 C 
ATOM      6  C   UNL     1     104.868 134.171 127.698  1.00  0.00     0.102 C 
ATOM      7  C   UNL     1     106.154 134.204 126.845  1.00  0.00     0.116 C 
ATOM      8  C   UNL     1     104.709 138.606 128.746  1.00  0.00    -0.020 A 
ATOM      9  C   UNL     1     106.438 138.052 126.961  1.00  0.00    -0.011 A 
ATOM     10  C   UNL     1     106.682 135.613 126.704  1.00  0.00    -0.007 C 
ATOM     11  C   UNL     1     105.792 138.891 127.881  1.00  0.00     0.010 A 
ATOM     12  C   UNL     1     106.175 140.208 128.061  1.00  0.00     0.046 A 
ATOM     13  C   UNL     1     104.445 139.756 129.454  1.00  0.00     0.087 A 
ATOM     14  C   UNL     1     107.497 138.590 126.225  1.00  0.00     0.009 A 
ATOM     15  C   UNL     1     107.227 140.767 127.331  1.00  0.00     0.027 A 
ATOM     16  C   UNL     1     107.878 139.928 126.409  1.00  0.00     0.003 A 
ATOM     17  H   UNL     1     105.381 141.665 129.383  1.00  0.00     0.166 HD
ENDROOT
BRANCH   7  18
ATOM     18  C   UNL     1     107.192 133.274 127.505  1.00  0.00     0.230 C 
ATOM     19  O   UNL     1     107.794 133.625 128.524  1.00  0.00    -0.274 OA
ATOM     20  N   UNL     1     107.400 132.001 126.941  1.00  0.00    -0.343 N 
BRANCH  20  21
ATOM     21  C   UNL     1     106.965 131.658 125.577  1.00  0.00     0.116 C 
ATOM     22  C   UNL     1     108.061 131.672 124.520  1.00  0.00     0.027 C 
ENDBRANCH  20  21
BRANCH  20  23
ATOM     23  C   UNL     1     108.474 131.202 127.546  1.00  0.00     0.116 C 
ATOM     24  C   UNL     1     108.112 129.729 127.661  1.00  0.00     0.027 C 
ENDBRANCH  20  23
ENDBRANCH   7  18
BRANCH   1  25
ATOM     25  C   UNL     1     102.541 134.960 127.739  1.00  0.00     0.082 C 
ATOM     26  C   UNL     1     101.789 133.813 127.069  1.00  0.00     0.021 C 
ENDBRANCH   1  25
TORSDOF 4
ENDMDL
MODEL 6
REMARK VINA RESULT:    -7.384      3.462      6.110
REMARK INTER + INTRA:          -9.698
REMARK INTER:                  -9.126
REMARK INTRA:                  -0.572
REMARK UNBOUND:                -0.587
REMARK SMILES CCN(CC)C(=O)[C@@H]1C=C2c3cccc4[nH]cc(c34)C[C@H]2N(CC)C1
REMARK SMILES IDX 22 1 16 2 21 3 10 4 20 5 25 6 8 7 18 8 11 9 9 10 19 11 15 12
REMARK SMILES IDX 17 13 12 14 14 15 13 16 6 18 7 19 3 20 2 21 1 22 4 23 5 24
REMARK SMILES IDX 23 25 24 26
REMARK H PARENT 16 17
ROOT
ATOM      1  N   UNL     1     105.346 135.404 128.690  1.00  0.00    -0.295 NA
ATOM      2  N   UNL     1     109.937 137.409 125.301  1.00  0.00    -0.361 N 
ATOM      3  C   UNL     1     106.574 136.052 128.139  1.00  0.00     0.091 C 
ATOM      4  C   UNL     1     106.677 137.559 128.519  1.00  0.00    -0.026 C 
ATOM      5  C   UNL     1     106.848 135.825 126.599  1.00  0.00     0.061 C 
ATOM      6  C   UNL     1     104.174 136.278 128.523  1.00  0.00     0.102 C 
ATOM      7  C   UNL     1     104.334 137.565 129.361  1.00  0.00     0.116 C 
ATOM      8  C   UNL     1     108.081 136.568 126.190  1.00  0.00    -0.020 A 
ATOM      9  C   UNL     1     107.922 138.239 128.105  1.00  0.00    -0.011 A 
ATOM     10  C   UNL     1     105.662 138.234 129.088  1.00  0.00    -0.007 C 
ATOM     11  C   UNL     1     108.505 137.678 126.959  1.00  0.00     0.010 A 
ATOM     12  C   UNL     1     109.662 138.193 126.403  1.00  0.00     0.046 A 
ATOM     13  C   UNL     1     108.984 136.420 125.164  1.00  0.00     0.087 A 
ATOM     14  C   UNL     1     108.549 139.350 128.674  1.00  0.00     0.009 A 
ATOM     15  C   UNL     1     110.308 139.300 126.959  1.00  0.00     0.027 A 
ATOM     16  C   UNL     1     109.726 139.865 128.108  1.00  0.00     0.003 A 
ATOM     17  H   UNL     1     110.725 137.546 124.684  1.00  0.00     0.166 HD
ENDROOT
BRANCH   7  18
ATOM     18  C   UNL     1     103.152 138.499 129.039  1.00  0.00     0.230 C 
ATOM     19  O   UNL     1     103.259 139.376 128.177  1.00  0.00    -0.274 OA
ATOM     20  N   UNL     1     101.937 138.297 129.720  1.00  0.00    -0.343 N 
BRANCH  20  21
ATOM     21  C   UNL     1     101.845 137.504 130.957  1.00  0.00     0.116 C 
ATOM     22  C   UNL     1     100.538 136.747 131.151  1.00  0.00     0.027 C 
ENDBRANCH  20  21
BRANCH  20  23
ATOM     23  C   UNL     1     100.882 139.282 129.451  1.00  0.00     0.116 C 
ATOM     24  C   UNL     1     100.900 140.442 130.436  1.00  0.00     0.027 C 
ENDBRANCH  20  23
ENDBRANCH   7  18
BRANCH   1  25
ATOM     25  C   UNL     1     105.139 134.044 128.186  1.00  0.00     0.082 C 
ATOM     26  C   UNL     1     106.172 133.058 128.724  1.00  0.00     0.021 C 
ENDBRANCH   1  25
TORSDOF 4
ENDMDL
MODEL 7
REMARK VINA RESULT:    -7.358      1.352      1.738
REMARK INTER + INTRA:          -9.665
REMARK INTER:                 -10.144
REMARK INTRA:                   0.479
REMARK UNBOUND:                -0.587
REMARK SMILES CCN(CC)C(=O)[C@@H]1C=C2c3cccc4[nH]cc(c34)C[C@H]2N(CC)C1
REMARK SMILES IDX 22 1 16 2 21 3 10 4 20 5 25 6 8 7 18 8 11 9 9 10 19 11 15 12
REMARK SMILES IDX 17 13 12 14 14 15 13 16 6 18 7 19 3 20 2 21 1 22 4 23 5 24
REMARK SMILES IDX 23 25 24 26
REMARK H PARENT 16 17
ROOT
ATOM      1  N   UNL     1     105.371 135.988 125.787  1.00  0.00    -0.295 NA
ATOM      2  N   UNL     1     108.891 140.040 128.576  1.00  0.00    -0.361 N 
ATOM      3  C   UNL     1     106.371 137.030 126.168  1.00  0.00     0.091 C 
ATOM      4  C   UNL     1     107.791 136.733 125.600  1.00  0.00    -0.026 C 
ATOM      5  C   UNL     1     106.432 137.409 127.701  1.00  0.00     0.061 C 
ATOM      6  C   UNL     1     105.943 134.639 125.927  1.00  0.00     0.102 C 
ATOM      7  C   UNL     1     107.103 134.437 124.928  1.00  0.00     0.116 C 
ATOM      8  C   UNL     1     107.504 138.427 127.929  1.00  0.00    -0.020 A 
ATOM      9  C   UNL     1     108.807 137.779 125.839  1.00  0.00    -0.011 A 
ATOM     10  C   UNL     1     108.110 135.560 125.024  1.00  0.00    -0.007 C 
ATOM     11  C   UNL     1     108.569 138.527 127.002  1.00  0.00     0.010 A 
ATOM     12  C   UNL     1     109.424 139.535 127.409  1.00  0.00     0.046 A 
ATOM     13  C   UNL     1     107.725 139.375 128.900  1.00  0.00     0.087 A 
ATOM     14  C   UNL     1     109.950 138.082 125.095  1.00  0.00     0.009 A 
ATOM     15  C   UNL     1     110.570 139.858 126.677  1.00  0.00     0.027 A 
ATOM     16  C   UNL     1     110.812 139.109 125.510  1.00  0.00     0.003 A 
ATOM     17  H   UNL     1     109.301 140.789 129.116  1.00  0.00     0.166 HD
ENDROOT
BRANCH   7  18
ATOM     18  C   UNL     1     107.752 133.068 125.214  1.00  0.00     0.230 C 
ATOM     19  O   UNL     1     108.151 132.355 124.289  1.00  0.00    -0.274 OA
ATOM     20  N   UNL     1     107.917 132.677 126.556  1.00  0.00    -0.343 N 
BRANCH  20  21
ATOM     21  C   UNL     1     107.189 133.317 127.664  1.00  0.00     0.116 C 
ATOM     22  C   UNL     1     108.002 134.291 128.503  1.00  0.00     0.027 C 
ENDBRANCH  20  21
BRANCH  20  23
ATOM     23  C   UNL     1     108.442 131.321 126.765  1.00  0.00     0.116 C 
ATOM     24  C   UNL     1     108.061 130.751 128.124  1.00  0.00     0.027 C 
ENDBRANCH  20  23
ENDBRANCH   7  18
BRANCH   1  25
ATOM     25  C   UNL     1     104.084 136.152 126.468  1.00  0.00     0.082 C 
ATOM     26  C   UNL     1     103.781 135.006 127.429  1.00  0.00     0.021 C 
ENDBRANCH   1  25
TORSDOF 4
ENDMDL
MODEL 8
REMARK VINA RESULT:    -7.313      3.162      5.766
REMARK INTER + INTRA:          -9.610
REMARK INTER:                 -10.778
REMARK INTRA:                   1.168
REMARK UNBOUND:                -0.587
REMARK SMILES CCN(CC)C(=O)[C@@H]1C=C2c3cccc4[nH]cc(c34)C[C@H]2N(CC)C1
REMARK SMILES IDX 22 1 16 2 21 3 10 4 20 5 25 6 8 7 18 8 11 9 9 10 19 11 15 12
REMARK SMILES IDX 17 13 12 14 14 15 13 16 6 18 7 19 3 20 2 21 1 22 4 23 5 24
REMARK SMILES IDX 23 25 24 26
REMARK H PARENT 16 17
ROOT
ATOM      1  N   UNL     1     107.803 130.469 125.688  1.00  0.00    -0.295 NA
ATOM      2  N   UNL     1     107.250 135.914 128.262  1.00  0.00    -0.361 N 
ATOM      3  C   UNL     1     107.426 131.858 126.091  1.00  0.00     0.091 C 
ATOM      4  C   UNL     1     107.329 132.827 124.876  1.00  0.00    -0.026 C 
ATOM      5  C   UNL     1     108.266 132.491 127.270  1.00  0.00     0.061 C 
ATOM      6  C   UNL     1     108.880 130.490 124.686  1.00  0.00     0.102 C 
ATOM      7  C   UNL     1     108.389 131.146 123.377  1.00  0.00     0.116 C 
ATOM      8  C   UNL     1     107.803 133.890 127.526  1.00  0.00    -0.020 A 
ATOM      9  C   UNL     1     106.850 134.191 125.183  1.00  0.00    -0.011 A 
ATOM     10  C   UNL     1     107.753 132.491 123.645  1.00  0.00    -0.007 C 
ATOM     11  C   UNL     1     107.147 134.601 126.492  1.00  0.00     0.010 A 
ATOM     12  C   UNL     1     106.803 135.856 126.959  1.00  0.00     0.046 A 
ATOM     13  C   UNL     1     107.857 134.726 128.617  1.00  0.00     0.087 A 
ATOM     14  C   UNL     1     106.191 135.101 124.353  1.00  0.00     0.009 A 
ATOM     15  C   UNL     1     106.138 136.779 126.147  1.00  0.00     0.027 A 
ATOM     16  C   UNL     1     105.839 136.371 124.834  1.00  0.00     0.003 A 
ATOM     17  H   UNL     1     107.148 136.716 128.868  1.00  0.00     0.166 HD
ENDROOT
BRANCH   7  18
ATOM     18  C   UNL     1     109.592 131.268 122.420  1.00  0.00     0.230 C 
ATOM     19  O   UNL     1     110.404 132.189 122.545  1.00  0.00    -0.274 OA
ATOM     20  N   UNL     1     109.761 130.279 121.434  1.00  0.00    -0.343 N 
BRANCH  20  21
ATOM     21  C   UNL     1     108.680 129.363 121.036  1.00  0.00     0.116 C 
ATOM     22  C   UNL     1     107.519 130.008 120.292  1.00  0.00     0.027 C 
ENDBRANCH  20  21
BRANCH  20  23
ATOM     23  C   UNL     1     110.860 130.505 120.486  1.00  0.00     0.116 C 
ATOM     24  C   UNL     1     111.065 129.331 119.539  1.00  0.00     0.027 C 
ENDBRANCH  20  23
ENDBRANCH   7  18
BRANCH   1  25
ATOM     25  C   UNL     1     108.082 129.596 126.831  1.00  0.00     0.082 C 
ATOM     26  C   UNL     1     108.056 130.346 128.159  1.00  0.00     0.021 C 
ENDBRANCH   1  25
TORSDOF 4
ENDMDL
MODEL 9
REMARK VINA RESULT:    -7.265      2.278      4.598
REMARK INTER + INTRA:          -9.551
REMARK INTER:                  -8.884
REMARK INTRA:                  -0.667
REMARK UNBOUND:                -0.587
REMARK SMILES CCN(CC)C(=O)[C@@H]1C=C2c3cccc4[nH]cc(c34)C[C@H]2N(CC)C1
REMARK SMILES IDX 22 1 16 2 21 3 10 4 20 5 25 6 8 7 18 8 11 9 9 10 19 11 15 12
REMARK SMILES IDX 17 13 12 14 14 15 13 16 6 18 7 19 3 20 2 21 1 22 4 23 5 24
REMARK SMILES IDX 23 25 24 26
REMARK H PARENT 16 17
ROOT
ATOM      1  N   UNL     1     109.011 137.120 126.915  1.00  0.00    -0.295 NA
ATOM      2  N   UNL     1     103.818 139.853 128.380  1.00  0.00    -0.361 N 
ATOM      3  C   UNL     1     107.704 137.544 127.501  1.00  0.00     0.091 C 
ATOM      4  C   UNL     1     106.693 136.366 127.624  1.00  0.00    -0.026 C 
ATOM      5  C   UNL     1     107.030 138.816 126.849  1.00  0.00     0.061 C 
ATOM      6  C   UNL     1     108.803 136.217 125.771  1.00  0.00     0.102 C 
ATOM      7  C   UNL     1     108.148 134.898 126.235  1.00  0.00     0.116 C 
ATOM      8  C   UNL     1     105.716 139.087 127.510  1.00  0.00    -0.020 A 
ATOM      9  C   UNL     1     105.418 136.684 128.299  1.00  0.00    -0.011 A 
ATOM     10  C   UNL     1     106.909 135.163 127.060  1.00  0.00    -0.007 C 
ATOM     11  C   UNL     1     105.042 138.029 128.166  1.00  0.00     0.010 A 
ATOM     12  C   UNL     1     103.866 138.514 128.708  1.00  0.00     0.046 A 
ATOM     13  C   UNL     1     104.937 140.211 127.654  1.00  0.00     0.087 A 
ATOM     14  C   UNL     1     104.558 135.836 129.002  1.00  0.00     0.009 A 
ATOM     15  C   UNL     1     102.994 137.685 129.418  1.00  0.00     0.027 A 
ATOM     16  C   UNL     1     103.369 136.336 129.554  1.00  0.00     0.003 A 
ATOM     17  H   UNL     1     103.068 140.479 128.635  1.00  0.00     0.166 HD
ENDROOT
BRANCH   7  18
ATOM     18  C   UNL     1     107.826 134.056 124.985  1.00  0.00     0.230 C 
ATOM     19  O   UNL     1     107.351 134.584 123.975  1.00  0.00    -0.274 OA
ATOM     20  N   UNL     1     108.131 132.682 125.010  1.00  0.00    -0.343 N 
BRANCH  20  21
ATOM     21  C   UNL     1     108.388 131.951 126.262  1.00  0.00     0.116 C 
ATOM     22  C   UNL     1     107.620 130.647 126.425  1.00  0.00     0.027 C 
ENDBRANCH  20  21
BRANCH  20  23
ATOM     23  C   UNL     1     107.705 131.912 123.834  1.00  0.00     0.116 C 
ATOM     24  C   UNL     1     108.878 131.303 123.080  1.00  0.00     0.027 C 
ENDBRANCH  20  23
ENDBRANCH   7  18
BRANCH   1  25
ATOM     25  C   UNL     1     109.900 138.246 126.618  1.00  0.00     0.082 C 
ATOM     26  C   UNL     1     110.310 138.296 125.149  1.00  0.00     0.021 C 
ENDBRANCH   1  25
TORSDOF 4
ENDMDL
MODEL 10
REMARK VINA RESULT:    -7.250      3.490      6.253
REMARK INTER + INTRA:          -9.533
REMARK INTER:                  -8.847
REMARK INTRA:                  -0.685
REMARK UNBOUND:                -0.587
REMARK SMILES CCN(CC)C(=O)[C@@H]1C=C2c3cccc4[nH]cc(c34)C[C@H]2N(CC)C1
REMARK SMILES IDX 22 1 16 2 21 3 10 4 20 5 25 6 8 7 18 8 11 9 9 10 19 11 15 12
REMARK SMILES IDX 17 13 12 14 14 15 13 16 6 18 7 19 3 20 2 21 1 22 4 23 5 24
REMARK SMILES IDX 23 25 24 26
REMARK H PARENT 16 17
ROOT
ATOM      1  N   UNL     1     106.298 138.174 129.107  1.00  0.00    -0.295 NA
ATOM      2  N   UNL     1     100.616 140.101 129.876  1.00  0.00    -0.361 N 
ATOM      3  C   UNL     1     104.846 138.340 129.420  1.00  0.00     0.091 C 
ATOM      4  C   UNL     1     103.984 137.149 128.904  1.00  0.00    -0.026 C 
ATOM      5  C   UNL     1     104.204 139.729 129.027  1.00  0.00     0.061 C 
ATOM      6  C   UNL     1     106.484 137.683 127.732  1.00  0.00     0.102 C 
ATOM      7  C   UNL     1     105.898 136.262 127.582  1.00  0.00     0.116 C 
ATOM      8  C   UNL     1     102.746 139.725 129.360  1.00  0.00    -0.020 A 
ATOM      9  C   UNL     1     102.554 137.187 129.275  1.00  0.00    -0.011 A 
ATOM     10  C   UNL     1     104.473 136.202 128.084  1.00  0.00    -0.007 C 
ATOM     11  C   UNL     1     102.064 138.488 129.459  1.00  0.00     0.010 A 
ATOM     12  C   UNL     1     100.742 138.730 129.784  1.00  0.00     0.046 A 
ATOM     13  C   UNL     1     101.826 140.714 129.622  1.00  0.00     0.087 A 
ATOM     14  C   UNL     1     101.656 136.127 129.431  1.00  0.00     0.009 A 
ATOM     15  C   UNL     1      99.829 137.685 129.949  1.00  0.00     0.027 A 
ATOM     16  C   UNL     1     100.317 136.379 129.766  1.00  0.00     0.003 A 
ATOM     17  H   UNL     1      99.757 140.584 130.097  1.00  0.00     0.166 HD
ENDROOT
BRANCH   7  18
ATOM     18  C   UNL     1     105.993 135.858 126.097  1.00  0.00     0.230 C 
ATOM     19  O   UNL     1     105.248 136.370 125.256  1.00  0.00    -0.274 OA
ATOM     20  N   UNL     1     106.980 134.927 125.722  1.00  0.00    -0.343 N 
BRANCH  20  21
ATOM     21  C   UNL     1     107.663 134.061 126.697  1.00  0.00     0.116 C 
ATOM     22  C   UNL     1     106.919 132.788 127.074  1.00  0.00     0.027 C 
ENDBRANCH  20  21
BRANCH  20  23
ATOM     23  C   UNL     1     106.954 134.500 124.317  1.00  0.00     0.116 C 
ATOM     24  C   UNL     1     108.258 133.849 123.880  1.00  0.00     0.027 C 
ENDBRANCH  20  23
ENDBRANCH   7  18
BRANCH   1  25
ATOM     25  C   UNL     1     107.090 139.367 129.415  1.00  0.00     0.082 C 
ATOM     26  C   UNL     1     108.328 139.491 128.531  1.00  0.00     0.021 C 
ENDBRANCH   1  25
TORSDOF 4
ENDMDL
MODEL 11
REMARK VINA RESULT:    -7.184      3.416      7.765
REMARK INTER + INTRA:          -9.451
REMARK INTER:                  -8.770
REMARK INTRA:                  -0.681
REMARK UNBOUND:                -0.587
REMARK SMILES CCN(CC)C(=O)[C@@H]1C=C2c3cccc4[nH]cc(c34)C[C@H]2N(CC)C1
REMARK SMILES IDX 22 1 16 2 21 3 10 4 20 5 25 6 8 7 18 8 11 9 9 10 19 11 15 12
REMARK SMILES IDX 17 13 12 14 14 15 13 16 6 18 7 19 3 20 2 21 1 22 4 23 5 24
REMARK SMILES IDX 23 25 24 26
REMARK H PARENT 16 17
ROOT
ATOM      1  N   UNL     1     108.453 131.359 125.336  1.00  0.00    -0.295 NA
ATOM      2  N   UNL     1     110.416 129.489 119.930  1.00  0.00    -0.361 N 
ATOM      3  C   UNL     1     109.187 131.117 124.058  1.00  0.00     0.091 C 
ATOM      4  C   UNL     1     109.582 132.439 123.336  1.00  0.00    -0.026 C 
ATOM      5  C   UNL     1     108.522 130.091 123.058  1.00  0.00     0.061 C 
ATOM      6  C   UNL     1     107.452 132.426 125.171  1.00  0.00     0.102 C 
ATOM      7  C   UNL     1     108.141 133.773 124.867  1.00  0.00     0.116 C 
ATOM      8  C   UNL     1     109.346 129.990 121.814  1.00  0.00    -0.020 A 
ATOM      9  C   UNL     1     110.411 132.283 122.122  1.00  0.00    -0.011 A 
ATOM     10  C   UNL     1     109.117 133.642 123.719  1.00  0.00    -0.007 C 
ATOM     11  C   UNL     1     110.201 131.062 121.463  1.00  0.00     0.010 A 
ATOM     12  C   UNL     1     110.866 130.741 120.293  1.00  0.00     0.046 A 
ATOM     13  C   UNL     1     109.494 129.024 120.846  1.00  0.00     0.087 A 
ATOM     14  C   UNL     1     111.319 133.179 121.554  1.00  0.00     0.009 A 
ATOM     15  C   UNL     1     111.782 131.621 119.711  1.00  0.00     0.027 A 
ATOM     16  C   UNL     1     111.994 132.846 120.370  1.00  0.00     0.003 A 
ATOM     17  H   UNL     1     110.719 128.988 119.106  1.00  0.00     0.166 HD
ENDROOT
BRANCH   7  18
ATOM     18  C   UNL     1     107.047 134.816 124.564  1.00  0.00     0.230 C 
ATOM     19  O   UNL     1     106.490 134.842 123.463  1.00  0.00    -0.274 OA
ATOM     20  N   UNL     1     106.671 135.703 125.589  1.00  0.00    -0.343 N 
BRANCH  20  21
ATOM     21  C   UNL     1     107.499 135.931 126.784  1.00  0.00     0.116 C 
ATOM     22  C   UNL     1     108.525 137.049 126.664  1.00  0.00     0.027 C 
ENDBRANCH  20  21
BRANCH  20  23
ATOM     23  C   UNL     1     105.702 136.741 125.212  1.00  0.00     0.116 C 
ATOM     24  C   UNL     1     104.393 136.625 125.979  1.00  0.00     0.027 C 
ENDBRANCH  20  23
ENDBRANCH   7  18
BRANCH   1  25
ATOM     25  C   UNL     1     107.911 130.134 125.928  1.00  0.00     0.082 C 
ATOM     26  C   UNL     1     108.132 130.066 127.436  1.00  0.00     0.021 C 
ENDBRANCH   1  25
TORSDOF 4
ENDMDL
MODEL 12
REMARK VINA RESULT:    -7.101      4.762      8.170
REMARK INTER + INTRA:          -9.348
REMARK INTER:                  -9.113
REMARK INTRA:                  -0.235
REMARK UNBOUND:                -0.587
REMARK SMILES CCN(CC)C(=O)[C@@H]1C=C2c3cccc4[nH]cc(c34)C[C@H]2N(CC)C1
REMARK SMILES IDX 22 1 16 2 21 3 10 4 20 5 25 6 8 7 18 8 11 9 9 10 19 11 15 12
REMARK SMILES IDX 17 13 12 14 14 15 13 16 6 18 7 19 3 20 2 21 1 22 4 23 5 24
REMARK SMILES IDX 23 25 24 26
REMARK H PARENT 16 17
ROOT
ATOM      1  N   UNL     1     109.699 130.812 121.418  1.00  0.00    -0.295 NA
ATOM      2  N   UNL     1     107.232 131.433 126.906  1.00  0.00    -0.361 N 
ATOM      3  C   UNL     1     108.964 131.250 122.643  1.00  0.00     0.091 C 
ATOM      4  C   UNL     1     109.221 132.746 122.992  1.00  0.00    -0.026 C 
ATOM      5  C   UNL     1     109.121 130.326 123.916  1.00  0.00     0.061 C 
ATOM      6  C   UNL     1     111.075 131.333 121.420  1.00  0.00     0.102 C 
ATOM      7  C   UNL     1     111.071 132.874 121.331  1.00  0.00     0.116 C 
ATOM      8  C   UNL     1     108.368 130.917 125.066  1.00  0.00    -0.020 A 
ATOM      9  C   UNL     1     108.439 133.283 124.125  1.00  0.00    -0.011 A 
ATOM     10  C   UNL     1     110.168 133.481 122.380  1.00  0.00    -0.007 C 
ATOM     11  C   UNL     1     108.093 132.305 125.071  1.00  0.00     0.010 A 
ATOM     12  C   UNL     1     107.383 132.618 126.216  1.00  0.00     0.046 A 
ATOM     13  C   UNL     1     107.825 130.395 126.216  1.00  0.00     0.087 A 
ATOM     14  C   UNL     1     108.043 134.598 124.378  1.00  0.00     0.009 A 
ATOM     15  C   UNL     1     106.973 133.926 126.485  1.00  0.00     0.027 A 
ATOM     16  C   UNL     1     107.318 134.908 125.539  1.00  0.00     0.003 A 
ATOM     17  H   UNL     1     106.756 131.343 127.792  1.00  0.00     0.166 HD
ENDROOT
BRANCH   7  18
ATOM     18  C   UNL     1     112.523 133.368 121.479  1.00  0.00     0.230 C 
ATOM     19  O   UNL     1     112.900 133.913 122.521  1.00  0.00    -0.274 OA
ATOM     20  N   UNL     1     113.416 133.141 120.415  1.00  0.00    -0.343 N 
BRANCH  20  21
ATOM     21  C   UNL     1     112.962 132.799 119.058  1.00  0.00     0.116 C 
ATOM     22  C   UNL     1     112.966 131.315 118.722  1.00  0.00     0.027 C 
ENDBRANCH  20  21
BRANCH  20  23
ATOM     23  C   UNL     1     114.755 133.727 120.569  1.00  0.00     0.116 C 
ATOM     24  C   UNL     1     115.535 133.750 119.263  1.00  0.00     0.027 C 
ENDBRANCH  20  23
ENDBRANCH   7  18
BRANCH   1  25
ATOM     25  C   UNL     1     109.619 129.368 121.187  1.00  0.00     0.082 C 
ATOM     26  C   UNL     1     110.382 128.933 119.939  1.00  0.00     0.021 C 
ENDBRANCH   1  25
TORSDOF 4
ENDMDL
MODEL 13
REMARK VINA RESULT:    -7.064      2.798      6.818
REMARK INTER + INTRA:          -9.303
REMARK INTER:                  -9.438
REMARK INTRA:                   0.135
REMARK UNBOUND:                -0.587
REMARK SMILES CCN(CC)C(=O)[C@@H]1C=C2c3cccc4[nH]cc(c34)C[C@H]2N(CC)C1
REMARK SMILES IDX 22 1 16 2 21 3 10 4 20 5 25 6 8 7 18 8 11 9 9 10 19 11 15 12
REMARK SMILES IDX 17 13 12 14 14 15 13 16 6 18 7 19 3 20 2 21 1 22 4 23 5 24
REMARK SMILES IDX 23 25 24 26
REMARK H PARENT 16 17
ROOT
ATOM      1  N   UNL     1     105.397 139.407 129.897  1.00  0.00    -0.295 NA
ATOM      2  N   UNL     1     103.619 134.070 127.674  1.00  0.00    -0.361 N 
ATOM      3  C   UNL     1     105.259 137.984 129.460  1.00  0.00     0.091 C 
ATOM      4  C   UNL     1     106.518 137.466 128.705  1.00  0.00    -0.026 C 
ATOM      5  C   UNL     1     103.931 137.622 128.684  1.00  0.00     0.061 C 
ATOM      6  C   UNL     1     105.995 140.226 128.831  1.00  0.00     0.102 C 
ATOM      7  C   UNL     1     107.443 139.772 128.547  1.00  0.00     0.116 C 
ATOM      8  C   UNL     1     103.960 136.183 128.277  1.00  0.00    -0.020 A 
ATOM      9  C   UNL     1     106.501 136.034 128.341  1.00  0.00    -0.011 A 
ATOM     10  C   UNL     1     107.513 138.281 128.308  1.00  0.00    -0.007 C 
ATOM     11  C   UNL     1     105.207 135.527 128.148  1.00  0.00     0.010 A 
ATOM     12  C   UNL     1     104.987 134.213 127.778  1.00  0.00     0.046 A 
ATOM     13  C   UNL     1     102.986 135.259 127.976  1.00  0.00     0.087 A 
ATOM     14  C   UNL     1     107.576 135.163 128.142  1.00  0.00     0.009 A 
ATOM     15  C   UNL     1     106.046 133.324 127.579  1.00  0.00     0.027 A 
ATOM     16  C   UNL     1     107.345 133.829 127.771  1.00  0.00     0.003 A 
ATOM     17  H   UNL     1     103.150 133.214 127.411  1.00  0.00     0.166 HD
ENDROOT
BRANCH   7  18
ATOM     18  C   UNL     1     107.966 140.565 127.333  1.00  0.00     0.230 C 
ATOM     19  O   UNL     1     107.303 141.488 126.851  1.00  0.00    -0.274 OA
ATOM     20  N   UNL     1     109.236 140.239 126.821  1.00  0.00    -0.343 N 
BRANCH  20  21
ATOM     21  C   UNL     1     109.916 138.972 127.135  1.00  0.00     0.116 C 
ATOM     22  C   UNL     1     109.978 137.965 125.995  1.00  0.00     0.027 C 
ENDBRANCH  20  21
BRANCH  20  23
ATOM     23  C   UNL     1     109.635 140.954 125.602  1.00  0.00     0.116 C 
ATOM     24  C   UNL     1     110.732 141.977 125.857  1.00  0.00     0.027 C 
ENDBRANCH  20  23
ENDBRANCH   7  18
BRANCH   1  25
ATOM     25  C   UNL     1     104.155 139.964 130.438  1.00  0.00     0.082 C 
ATOM     26  C   UNL     1     103.959 141.429 130.059  1.00  0.00     0.021 C 
ENDBRANCH   1  25
TORSDOF 4
ENDMDL
MODEL 14
REMARK VINA RESULT:    -7.022      2.757      5.631
REMARK INTER + INTRA:          -9.251
REMARK INTER:                  -8.674
REMARK INTRA:                  -0.576
REMARK UNBOUND:                -0.587
REMARK SMILES CCN(CC)C(=O)[C@@H]1C=C2c3cccc4[nH]cc(c34)C[C@H]2N(CC)C1
REMARK SMILES IDX 22 1 16 2 21 3 10 4 20 5 25 6 8 7 18 8 11 9 9 10 19 11 15 12
REMARK SMILES IDX 17 13 12 14 14 15 13 16 6 18 7 19 3 20 2 21 1 22 4 23 5 24
REMARK SMILES IDX 23 25 24 26
REMARK H PARENT 16 17
ROOT
ATOM      1  N   UNL     1     106.870 134.535 127.704  1.00  0.00    -0.295 NA
ATOM      2  N   UNL     1     110.857 136.345 123.531  1.00  0.00    -0.361 N 
ATOM      3  C   UNL     1     107.962 135.187 126.919  1.00  0.00     0.091 C 
ATOM      4  C   UNL     1     107.949 136.738 127.050  1.00  0.00    -0.026 C 
ATOM      5  C   UNL     1     108.098 134.737 125.410  1.00  0.00     0.061 C 
ATOM      6  C   UNL     1     105.604 135.268 127.545  1.00  0.00     0.102 C 
ATOM      7  C   UNL     1     105.718 136.683 128.153  1.00  0.00     0.116 C 
ATOM      8  C   UNL     1     109.199 135.505 124.750  1.00  0.00    -0.020 A 
ATOM      9  C   UNL     1     109.068 137.446 126.394  1.00  0.00    -0.011 A 
ATOM     10  C   UNL     1     106.934 137.409 127.626  1.00  0.00    -0.007 C 
ATOM     11  C   UNL     1     109.584 136.757 125.286  1.00  0.00     0.010 A 
ATOM     12  C   UNL     1     110.619 137.270 124.525  1.00  0.00     0.046 A 
ATOM     13  C   UNL     1     110.002 135.269 123.659  1.00  0.00     0.087 A 
ATOM     14  C   UNL     1     109.634 138.683 126.710  1.00  0.00     0.009 A 
ATOM     15  C   UNL     1     111.203 138.504 124.827  1.00  0.00     0.027 A 
ATOM     16  C   UNL     1     110.687 139.197 125.937  1.00  0.00     0.003 A 
ATOM     17  H   UNL     1     111.559 136.445 122.811  1.00  0.00     0.166 HD
ENDROOT
BRANCH   7  18
ATOM     18  C   UNL     1     104.419 137.449 127.835  1.00  0.00     0.230 C 
ATOM     19  O   UNL     1     103.920 137.401 126.706  1.00  0.00    -0.274 OA
ATOM     20  N   UNL     1     103.795 138.165 128.874  1.00  0.00    -0.343 N 
BRANCH  20  21
ATOM     21  C   UNL     1     104.492 138.519 130.121  1.00  0.00     0.116 C 
ATOM     22  C   UNL     1     105.409 139.731 130.035  1.00  0.00     0.027 C 
ENDBRANCH  20  21
BRANCH  20  23
ATOM     23  C   UNL     1     102.623 138.960 128.487  1.00  0.00     0.116 C 
ATOM     24  C   UNL     1     101.768 139.359 129.681  1.00  0.00     0.027 C 
ENDBRANCH  20  23
ENDBRANCH   7  18
BRANCH   1  25
ATOM     25  C   UNL     1     106.752 133.099 127.440  1.00  0.00     0.082 C 
ATOM     26  C   UNL     1     107.993 132.322 127.873  1.00  0.00     0.021 C 
ENDBRANCH   1  25
TORSDOF 4
ENDMDL
MODEL 15
REMARK VINA RESULT:    -6.960      3.008      5.359
REMARK INTER + INTRA:          -9.174
REMARK INTER:                  -8.455
REMARK INTRA:                  -0.719
REMARK UNBOUND:                -0.587
REMARK SMILES CCN(CC)C(=O)[C@@H]1C=C2c3cccc4[nH]cc(c34)C[C@H]2N(CC)C1
REMARK SMILES IDX 22 1 16 2 21 3 10 4 20 5 25 6 8 7 18 8 11 9 9 10 19 11 15 12
REMARK SMILES IDX 17 13 12 14 14 15 13 16 6 18 7 19 3 20 2 21 1 22 4 23 5 24
REMARK SMILES IDX 23 25 24 26
REMARK H PARENT 16 17
ROOT
ATOM      1  N   UNL     1     108.292 138.234 128.514  1.00  0.00    -0.295 NA
ATOM      2  N   UNL     1     103.086 140.851 130.136  1.00  0.00    -0.361 N 
ATOM      3  C   UNL     1     106.957 138.591 129.081  1.00  0.00     0.091 C 
ATOM      4  C   UNL     1     105.905 137.457 128.896  1.00  0.00    -0.026 C 
ATOM      5  C   UNL     1     106.373 139.995 128.653  1.00  0.00     0.061 C 
ATOM      6  C   UNL     1     108.145 137.585 127.201  1.00  0.00     0.102 C 
ATOM      7  C   UNL     1     107.417 136.231 127.344  1.00  0.00     0.116 C 
ATOM      8  C   UNL     1     105.020 140.188 129.263  1.00  0.00    -0.020 A 
ATOM      9  C   UNL     1     104.592 137.692 129.532  1.00  0.00    -0.011 A 
ATOM     10  C   UNL     1     106.128 136.382 128.119  1.00  0.00    -0.007 C 
ATOM     11  C   UNL     1     104.267 139.052 129.645  1.00  0.00     0.010 A 
ATOM     12  C   UNL     1     103.068 139.473 130.191  1.00  0.00     0.046 A 
ATOM     13  C   UNL     1     104.266 141.295 129.576  1.00  0.00     0.087 A 
ATOM     14  C   UNL     1     103.656 136.761 129.989  1.00  0.00     0.009 A 
ATOM     15  C   UNL     1     102.120 138.559 130.659  1.00  0.00     0.027 A 
ATOM     16  C   UNL     1     102.443 137.194 130.547  1.00  0.00     0.003 A 
ATOM     17  H   UNL     1     102.337 141.446 130.459  1.00  0.00     0.166 HD
ENDROOT
BRANCH   7  18
ATOM     18  C   UNL     1     107.167 135.668 125.931  1.00  0.00     0.230 C 
ATOM     19  O   UNL     1     106.627 136.360 125.064  1.00  0.00    -0.274 OA
ATOM     20  N   UNL     1     107.611 134.363 125.646  1.00  0.00    -0.343 N 
BRANCH  20  21
ATOM     21  C   UNL     1     107.960 133.396 126.699  1.00  0.00     0.116 C 
ATOM     22  C   UNL     1     106.781 132.680 127.343  1.00  0.00     0.027 C 
ENDBRANCH  20  21
BRANCH  20  23
ATOM     23  C   UNL     1     107.251 133.842 124.320  1.00  0.00     0.116 C 
ATOM     24  C   UNL     1     108.065 132.615 123.935  1.00  0.00     0.027 C 
ENDBRANCH  20  23
ENDBRANCH   7  18
BRANCH   1  25
ATOM     25  C   UNL     1     109.233 139.356 128.511  1.00  0.00     0.082 C 
ATOM     26  C   UNL     1     109.961 139.505 127.178  1.00  0.00     0.021 C 
ENDBRANCH   1  25
TORSDOF 4
ENDMDL
MODEL 16
REMARK VINA RESULT:    -6.782      2.562      3.524
REMARK INTER + INTRA:          -8.954
REMARK INTER:                  -8.417
REMARK INTRA:                  -0.537
REMARK UNBOUND:                -0.587
REMARK SMILES CCN(CC)C(=O)[C@@H]1C=C2c3cccc4[nH]cc(c34)C[C@H]2N(CC)C1
REMARK SMILES IDX 22 1 16 2 21 3 10 4 20 5 25 6 8 7 18 8 11 9 9 10 19 11 15 12
REMARK SMILES IDX 17 13 12 14 14 15 13 16 6 18 7 19 3 20 2 21 1 22 4 23 5 24
REMARK SMILES IDX 23 25 24 26
REMARK H PARENT 16 17
ROOT
ATOM      1  N   UNL     1     103.304 134.764 127.184  1.00  0.00    -0.295 NA
ATOM      2  N   UNL     1     104.247 139.585 130.713  1.00  0.00    -0.361 N 
ATOM      3  C   UNL     1     103.735 136.055 127.801  1.00  0.00     0.091 C 
ATOM      4  C   UNL     1     105.274 136.275 127.715  1.00  0.00    -0.026 C 
ATOM      5  C   UNL     1     103.191 136.345 129.256  1.00  0.00     0.061 C 
ATOM      6  C   UNL     1     104.218 133.674 127.562  1.00  0.00     0.102 C 
ATOM      7  C   UNL     1     105.626 133.922 126.981  1.00  0.00     0.116 C 
ATOM      8  C   UNL     1     103.742 137.645 129.752  1.00  0.00    -0.020 A 
ATOM      9  C   UNL     1     105.762 137.582 128.203  1.00  0.00    -0.011 A 
ATOM     10  C   UNL     1     106.125 135.307 127.326  1.00  0.00    -0.007 C 
ATOM     11  C   UNL     1     104.944 138.142 129.195  1.00  0.00     0.010 A 
ATOM     12  C   UNL     1     105.249 139.351 129.794  1.00  0.00     0.046 A 
ATOM     13  C   UNL     1     103.327 138.557 130.694  1.00  0.00     0.087 A 
ATOM     14  C   UNL     1     106.911 138.287 127.834  1.00  0.00     0.009 A 
ATOM     15  C   UNL     1     106.390 140.075 129.437  1.00  0.00     0.027 A 
ATOM     16  C   UNL     1     107.212 139.515 128.442  1.00  0.00     0.003 A 
ATOM     17  H   UNL     1     104.199 140.396 131.313  1.00  0.00     0.166 HD
ENDROOT
BRANCH   7  18
ATOM     18  C   UNL     1     106.569 132.830 127.524  1.00  0.00     0.230 C 
ATOM     19  O   UNL     1     106.411 132.368 128.658  1.00  0.00    -0.274 OA
ATOM     20  N   UNL     1     107.583 132.344 126.677  1.00  0.00    -0.343 N 
BRANCH  20  21
ATOM     21  C   UNL     1     108.017 133.061 125.468  1.00  0.00     0.116 C 
ATOM     22  C   UNL     1     108.047 132.232 124.192  1.00  0.00     0.027 C 
ENDBRANCH  20  21
BRANCH  20  23
ATOM     23  C   UNL     1     108.514 131.383 127.283  1.00  0.00     0.116 C 
ATOM     24  C   UNL     1     108.148 129.939 126.972  1.00  0.00     0.027 C 
ENDBRANCH  20  23
ENDBRANCH   7  18
BRANCH   1  25
ATOM     25  C   UNL     1     101.892 134.456 127.424  1.00  0.00     0.082 C 
ATOM     26  C   UNL     1     101.562 132.989 127.162  1.00  0.00     0.021 C 
ENDBRANCH   1  25
TORSDOF 4
ENDMDL
MODEL 17
REMARK VINA RESULT:    -6.621      4.062      6.745
REMARK INTER + INTRA:          -8.756
REMARK INTER:                  -8.601
REMARK INTRA:                  -0.155
REMARK UNBOUND:                -0.587
REMARK SMILES CCN(CC)C(=O)[C@@H]1C=C2c3cccc4[nH]cc(c34)C[C@H]2N(CC)C1
REMARK SMILES IDX 22 1 16 2 21 3 10 4 20 5 25 6 8 7 18 8 11 9 9 10 19 11 15 12
REMARK SMILES IDX 17 13 12 14 14 15 13 16 6 18 7 19 3 20 2 21 1 22 4 23 5 24
REMARK SMILES IDX 23 25 24 26
REMARK H PARENT 16 17
ROOT
ATOM      1  N   UNL     1     108.702 131.773 122.635  1.00  0.00    -0.295 NA
ATOM      2  N   UNL     1     107.132 133.498 128.216  1.00  0.00    -0.361 N 
ATOM      3  C   UNL     1     108.225 132.485 123.859  1.00  0.00     0.091 C 
ATOM      4  C   UNL     1     108.784 133.935 123.963  1.00  0.00    -0.026 C 
ATOM      5  C   UNL     1     108.384 131.705 125.224  1.00  0.00     0.061 C 
ATOM      6  C   UNL     1     110.137 132.018 122.414  1.00  0.00     0.102 C 
ATOM      7  C   UNL     1     110.391 133.510 122.110  1.00  0.00     0.116 C 
ATOM      8  C   UNL     1     107.906 132.561 126.354  1.00  0.00    -0.020 A 
ATOM      9  C   UNL     1     108.265 134.741 125.088  1.00  0.00    -0.011 A 
ATOM     10  C   UNL     1     109.755 134.398 123.156  1.00  0.00    -0.007 C 
ATOM     11  C   UNL     1     107.882 133.966 126.193  1.00  0.00     0.010 A 
ATOM     12  C   UNL     1     107.395 134.542 127.353  1.00  0.00     0.046 A 
ATOM     13  C   UNL     1     107.437 132.291 127.618  1.00  0.00     0.087 A 
ATOM     14  C   UNL     1     108.143 136.129 125.195  1.00  0.00     0.009 A 
ATOM     15  C   UNL     1     107.260 135.927 127.479  1.00  0.00     0.027 A 
ATOM     16  C   UNL     1     107.644 136.706 126.372  1.00  0.00     0.003 A 
ATOM     17  H   UNL     1     106.769 133.606 129.152  1.00  0.00     0.166 HD
ENDROOT
BRANCH   7  18
ATOM     18  C   UNL     1     111.914 133.731 122.029  1.00  0.00     0.230 C 
ATOM     19  O   UNL     1     112.481 134.498 122.813  1.00  0.00    -0.274 OA
ATOM     20  N   UNL     1     112.643 133.004 121.070  1.00  0.00    -0.343 N 
BRANCH  20  21
ATOM     21  C   UNL     1     112.002 132.339 119.924  1.00  0.00     0.116 C 
ATOM     22  C   UNL     1     112.170 130.827 119.868  1.00  0.00     0.027 C 
ENDBRANCH  20  21
BRANCH  20  23
ATOM     23  C   UNL     1     114.071 133.334 120.968  1.00  0.00     0.116 C 
ATOM     24  C   UNL     1     114.572 133.318 119.531  1.00  0.00     0.027 C 
ENDBRANCH  20  23
ENDBRANCH   7  18
BRANCH   1  25
ATOM     25  C   UNL     1     108.341 130.353 122.619  1.00  0.00     0.082 C 
ATOM     26  C   UNL     1     109.079 129.575 121.534  1.00  0.00     0.021 C 
ENDBRANCH   1  25
TORSDOF 4
ENDMDL
MODEL 18
REMARK VINA RESULT:    -6.607      2.283      6.998
REMARK INTER + INTRA:          -8.739
REMARK INTER:                  -9.274
REMARK INTRA:                   0.535
REMARK UNBOUND:                -0.587
REMARK SMILES CCN(CC)C(=O)[C@@H]1C=C2c3cccc4[nH]cc(c34)C[C@H]2N(CC)C1
REMARK SMILES IDX 22 1 16 2 21 3 10 4 20 5 25 6 8 7 18 8 11 9 9 10 19 11 15 12
REMARK SMILES IDX 17 13 12 14 14 15 13 16 6 18 7 19 3 20 2 21 1 22 4 23 5 24
REMARK SMILES IDX 23 25 24 26
REMARK H PARENT 16 17
ROOT
ATOM      1  N   UNL     1     108.834 135.697 124.436  1.00  0.00    -0.295 NA
ATOM      2  N   UNL     1     105.144 133.338 128.608  1.00  0.00    -0.361 N 
ATOM      3  C   UNL     1     107.704 135.342 125.348  1.00  0.00     0.091 C 
ATOM      4  C   UNL     1     107.055 136.593 126.010  1.00  0.00    -0.026 C 
ATOM      5  C   UNL     1     107.999 134.213 126.413  1.00  0.00     0.061 C 
ATOM      6  C   UNL     1     109.692 136.727 125.044  1.00  0.00     0.102 C 
ATOM      7  C   UNL     1     108.912 138.048 125.216  1.00  0.00     0.116 C 
ATOM      8  C   UNL     1     106.794 134.004 127.274  1.00  0.00    -0.020 A 
ATOM      9  C   UNL     1     105.858 136.331 126.836  1.00  0.00    -0.011 A 
ATOM     10  C   UNL     1     107.600 137.821 125.932  1.00  0.00    -0.007 C 
ATOM     11  C   UNL     1     105.849 135.049 127.405  1.00  0.00     0.010 A 
ATOM     12  C   UNL     1     104.824 134.626 128.232  1.00  0.00     0.046 A 
ATOM     13  C   UNL     1     106.337 132.950 128.031  1.00  0.00     0.087 A 
ATOM     14  C   UNL     1     104.790 137.181 127.135  1.00  0.00     0.009 A 
ATOM     15  C   UNL     1     103.744 135.458 128.539  1.00  0.00     0.027 A 
ATOM     16  C   UNL     1     103.751 136.744 127.970  1.00  0.00     0.003 A 
ATOM     17  H   UNL     1     104.583 132.764 129.221  1.00  0.00     0.166 HD
ENDROOT
BRANCH   7  18
ATOM     18  C   UNL     1     109.810 139.040 125.981  1.00  0.00     0.230 C 
ATOM     19  O   UNL     1     111.023 138.835 126.093  1.00  0.00    -0.274 OA
ATOM     20  N   UNL     1     109.221 140.205 126.507  1.00  0.00    -0.343 N 
BRANCH  20  21
ATOM     21  C   UNL     1     107.766 140.345 126.685  1.00  0.00     0.116 C 
ATOM     22  C   UNL     1     107.275 141.760 126.955  1.00  0.00     0.027 C 
ENDBRANCH  20  21
BRANCH  20  23
ATOM     23  C   UNL     1     110.102 141.058 127.315  1.00  0.00     0.116 C 
ATOM     24  C   UNL     1     110.951 141.992 126.465  1.00  0.00     0.027 C 
ENDBRANCH  20  23
ENDBRANCH   7  18
BRANCH   1  25
ATOM     25  C   UNL     1     109.573 134.527 123.956  1.00  0.00     0.082 C 
ATOM     26  C   UNL     1     110.676 134.897 122.969  1.00  0.00     0.021 C 
ENDBRANCH   1  25
TORSDOF 4
ENDMDL
