MODEL 1
REMARK VINA RESULT:    -8.881      0.000      0.000
REMARK INTER + INTRA:         -11.337
REMARK INTER:                 -10.957
REMARK INTRA:                  -0.379
REMARK UNBOUND:                -0.379
REMARK SMILES CCN(CC)C(=O)[C@@H]1C=C2c3cccc4[nH]cc(c34)C[C@H]2N(CC)C1
REMARK SMILES IDX 22 1 16 2 21 3 10 4 20 5 25 6 8 7 18 8 11 9 9 10 19 11 15 12
REMARK SMILES IDX 17 13 12 14 14 15 13 16 6 18 7 19 3 20 2 21 1 22 4 23 5 24
REMARK SMILES IDX 23 25 24 26
REMARK H PARENT 16 17
ROOT
ATOM      1  N   UNL     1     102.740 119.039  78.918  1.00  0.00    -0.295 NA
ATOM      2  N   UNL     1      98.842 123.569  77.986  1.00  0.00    -0.361 N 
ATOM      3  C   UNL     1     101.794 120.191  79.023  1.00  0.00     0.091 C 
ATOM      4  C   UNL     1     100.724 119.986  80.136  1.00  0.00    -0.026 C 
ATOM      5  C   UNL     1     101.134 120.674  77.671  1.00  0.00     0.061 C 
ATOM      6  C   UNL     1     102.017 117.760  79.007  1.00  0.00     0.102 C 
ATOM      7  C   UNL     1     101.374 117.598  80.401  1.00  0.00     0.116 C 
ATOM      8  C   UNL     1     100.185 121.798  77.945  1.00  0.00    -0.020 A 
ATOM      9  C   UNL     1      99.824 121.133  80.376  1.00  0.00    -0.011 A 
ATOM     10  C   UNL     1     100.550 118.811  80.768  1.00  0.00    -0.007 C 
ATOM     11  C   UNL     1      99.630 121.932  79.239  1.00  0.00     0.010 A 
ATOM     12  C   UNL     1      98.799 123.038  79.258  1.00  0.00     0.046 A 
ATOM     13  C   UNL     1      99.681 122.825  77.181  1.00  0.00     0.087 A 
ATOM     14  C   UNL     1      99.143 121.489  81.543  1.00  0.00     0.009 A 
ATOM     15  C   UNL     1      98.113 123.414  80.416  1.00  0.00     0.027 A 
ATOM     16  C   UNL     1      98.306 122.615  81.557  1.00  0.00     0.003 A 
ATOM     17  H   UNL     1      98.328 124.386  77.689  1.00  0.00     0.166 HD
ENDROOT
BRANCH   7  18
ATOM     18  C   UNL     1     100.518 116.315  80.389  1.00  0.00     0.230 C 
ATOM     19  O   UNL     1      99.794 116.050  79.425  1.00  0.00    -0.274 OA
ATOM     20  N   UNL     1     100.619 115.437  81.484  1.00  0.00    -0.343 N 
BRANCH  20  21
ATOM     21  C   UNL     1     101.199 115.842  82.775  1.00  0.00     0.116 C 
ATOM     22  C   UNL     1     100.327 116.757  83.623  1.00  0.00     0.027 C 
ENDBRANCH  20  21
BRANCH  20  23
ATOM     23  C   UNL     1      99.704 114.288  81.467  1.00  0.00     0.116 C 
ATOM     24  C   UNL     1      99.595 113.609  82.824  1.00  0.00     0.027 C 
ENDBRANCH  20  23
ENDBRANCH   7  18
BRANCH   1  25
ATOM     25  C   UNL     1     103.629 119.130  77.757  1.00  0.00     0.082 C 
ATOM     26  C   UNL     1     104.172 117.770  77.329  1.00  0.00     0.021 C 
ENDBRANCH   1  25
TORSDOF 4
ENDMDL
MODEL 2
REMARK VINA RESULT:    -8.270      2.196      4.557
REMARK INTER + INTRA:         -10.583
REMARK INTER:                 -10.198
REMARK INTRA:                  -0.386
REMARK UNBOUND:                -0.379
REMARK SMILES CCN(CC)C(=O)[C@@H]1C=C2c3cccc4[nH]cc(c34)C[C@H]2N(CC)C1
REMARK SMILES IDX 22 1 16 2 21 3 10 4 20 5 25 6 8 7 18 8 11 9 9 10 19 11 15 12
REMARK SMILES IDX 17 13 12 14 14 15 13 16 6 18 7 19 3 20 2 21 1 22 4 23 5 24
REMARK SMILES IDX 23 25 24 26
REMARK H PARENT 16 17
ROOT
ATOM      1  N   UNL     1     100.734 116.844  80.588  1.00  0.00    -0.295 NA
ATOM      2  N   UNL     1      98.842 122.406  82.026  1.00  0.00    -0.361 N 
ATOM      3  C   UNL     1     100.160 118.223  80.623  1.00  0.00     0.091 C 
ATOM      4  C   UNL     1     100.596 119.084  79.401  1.00  0.00    -0.026 C 
ATOM      5  C   UNL     1     100.335 119.014  81.979  1.00  0.00     0.061 C 
ATOM      6  C   UNL     1     102.151 116.878  80.191  1.00  0.00     0.102 C 
ATOM      7  C   UNL     1     102.294 117.387  78.741  1.00  0.00     0.116 C 
ATOM      8  C   UNL     1      99.751 120.385  81.844  1.00  0.00    -0.020 A 
ATOM      9  C   UNL     1      99.977 120.422  79.308  1.00  0.00    -0.011 A 
ATOM     10  C   UNL     1     101.554 118.690  78.542  1.00  0.00    -0.007 C 
ATOM     11  C   UNL     1      99.620 120.955  80.555  1.00  0.00     0.010 A 
ATOM     12  C   UNL     1      99.049 122.210  80.676  1.00  0.00     0.046 A 
ATOM     13  C   UNL     1      99.263 121.304  82.743  1.00  0.00     0.087 A 
ATOM     14  C   UNL     1      99.739 121.205  78.175  1.00  0.00     0.009 A 
ATOM     15  C   UNL     1      98.799 123.007  79.556  1.00  0.00     0.027 A 
ATOM     16  C   UNL     1      99.156 122.475  78.304  1.00  0.00     0.003 A 
ATOM     17  H   UNL     1      98.440 123.241  82.428  1.00  0.00     0.166 HD
ENDROOT
BRANCH   7  18
ATOM     18  C   UNL     1     103.796 117.536  78.429  1.00  0.00     0.230 C 
ATOM     19  O   UNL     1     104.310 118.654  78.324  1.00  0.00    -0.274 OA
ATOM     20  N   UNL     1     104.572 116.367  78.314  1.00  0.00    -0.343 N 
BRANCH  20  21
ATOM     21  C   UNL     1     103.976 115.037  78.111  1.00  0.00     0.116 C 
ATOM     22  C   UNL     1     104.457 113.953  79.065  1.00  0.00     0.027 C 
ENDBRANCH  20  21
BRANCH  20  23
ATOM     23  C   UNL     1     105.971 116.567  77.912  1.00  0.00     0.116 C 
ATOM     24  C   UNL     1     106.940 116.417  79.077  1.00  0.00     0.027 C 
ENDBRANCH  20  23
ENDBRANCH   7  18
BRANCH   1  25
ATOM     25  C   UNL     1     100.489 116.088  81.819  1.00  0.00     0.082 C 
ATOM     26  C   UNL     1      99.568 114.892  81.596  1.00  0.00     0.021 C 
ENDBRANCH   1  25
TORSDOF 4
ENDMDL
MODEL 3
REMARK VINA RESULT:    -7.987      1.396      1.931
REMARK INTER + INTRA:         -10.234
REMARK INTER:                 -10.962
REMARK INTRA:                   0.729
REMARK UNBOUND:                -0.379
REMARK SMILES CCN(CC)C(=O)[C@@H]1C=C2c3cccc4[nH]cc(c34)C[C@H]2N(CC)C1
REMARK SMILES IDX 22 1 16 2 21 3 10 4 20 5 25 6 8 7 18 8 11 9 9 10 19 11 15 12
REMARK SMILES IDX 17 13 12 14 14 15 13 16 6 18 7 19 3 20 2 21 1 22 4 23 5 24
REMARK SMILES IDX 23 25 24 26
REMARK H PARENT 16 17
ROOT
ATOM      1  N   UNL     1     103.137 118.990  79.329  1.00  0.00    -0.295 NA
ATOM      2  N   UNL     1      98.847 123.173  78.504  1.00  0.00    -0.361 N 
ATOM      3  C   UNL     1     102.090 120.048  79.461  1.00  0.00     0.091 C 
ATOM      4  C   UNL     1     101.038 119.713  80.559  1.00  0.00    -0.026 C 
ATOM      5  C   UNL     1     101.396 120.511  78.119  1.00  0.00     0.061 C 
ATOM      6  C   UNL     1     102.534 117.649  79.374  1.00  0.00     0.102 C 
ATOM      7  C   UNL     1     101.901 117.386  80.757  1.00  0.00     0.116 C 
ATOM      8  C   UNL     1     100.347 121.534  78.419  1.00  0.00    -0.020 A 
ATOM      9  C   UNL     1     100.035 120.765  80.827  1.00  0.00    -0.011 A 
ATOM     10  C   UNL     1     100.968 118.508  81.154  1.00  0.00    -0.007 C 
ATOM     11  C   UNL     1      99.775 121.577  79.713  1.00  0.00     0.010 A 
ATOM     12  C   UNL     1      98.847 122.602  79.759  1.00  0.00     0.046 A 
ATOM     13  C   UNL     1      99.755 122.534  77.683  1.00  0.00     0.087 A 
ATOM     14  C   UNL     1      99.318 121.021  81.999  1.00  0.00     0.009 A 
ATOM     15  C   UNL     1      98.123 122.879  80.922  1.00  0.00     0.027 A 
ATOM     16  C   UNL     1      98.382 122.065  82.040  1.00  0.00     0.003 A 
ATOM     17  H   UNL     1      98.262 123.950  78.227  1.00  0.00     0.166 HD
ENDROOT
BRANCH   7  18
ATOM     18  C   UNL     1     101.166 116.032  80.700  1.00  0.00     0.230 C 
ATOM     19  O   UNL     1     101.064 115.329  81.709  1.00  0.00    -0.274 OA
ATOM     20  N   UNL     1     100.578 115.644  79.482  1.00  0.00    -0.343 N 
BRANCH  20  21
ATOM     21  C   UNL     1     100.934 116.266  78.196  1.00  0.00     0.116 C 
ATOM     22  C   UNL     1      99.925 117.271  77.656  1.00  0.00     0.027 C 
ENDBRANCH  20  21
BRANCH  20  23
ATOM     23  C   UNL     1      99.985 114.300  79.459  1.00  0.00     0.116 C 
ATOM     24  C   UNL     1      98.464 114.333  79.460  1.00  0.00     0.027 C 
ENDBRANCH  20  23
ENDBRANCH   7  18
BRANCH   1  25
ATOM     25  C   UNL     1     104.020 119.198  78.178  1.00  0.00     0.082 C 
ATOM     26  C   UNL     1     104.271 117.913  77.395  1.00  0.00     0.021 C 
ENDBRANCH   1  25
TORSDOF 4
ENDMDL
MODEL 4
REMARK VINA RESULT:    -7.481      1.960      4.797
REMARK INTER + INTRA:          -9.609
REMARK INTER:                  -9.901
REMARK INTRA:                   0.292
REMARK UNBOUND:                -0.379
REMARK SMILES CCN(CC)C(=O)[C@@H]1C=C2c3cccc4[nH]cc(c34)C[C@H]2N(CC)C1
REMARK SMILES IDX 22 1 16 2 21 3 10 4 20 5 25 6 8 7 18 8 11 9 9 10 19 11 15 12
REMARK SMILES IDX 17 13 12 14 14 15 13 16 6 18 7 19 3 20 2 21 1 22 4 23 5 24
REMARK SMILES IDX 23 25 24 26
REMARK H PARENT 16 17
ROOT
ATOM      1  N   UNL     1     100.860 115.925  81.010  1.00  0.00    -0.295 NA
ATOM      2  N   UNL     1      99.650 121.844  80.700  1.00  0.00    -0.361 N 
ATOM      3  C   UNL     1     100.406 117.302  80.646  1.00  0.00     0.091 C 
ATOM      4  C   UNL     1     100.712 117.659  79.162  1.00  0.00    -0.026 C 
ATOM      5  C   UNL     1     100.852 118.462  81.623  1.00  0.00     0.061 C 
ATOM      6  C   UNL     1     102.196 115.652  80.456  1.00  0.00     0.102 C 
ATOM      7  C   UNL     1     102.150 115.642  78.913  1.00  0.00     0.116 C 
ATOM      8  C   UNL     1     100.362 119.776  81.104  1.00  0.00    -0.020 A 
ATOM      9  C   UNL     1     100.190 118.961  78.697  1.00  0.00    -0.011 A 
ATOM     10  C   UNL     1     101.491 116.893  78.377  1.00  0.00    -0.007 C 
ATOM     11  C   UNL     1     100.075 119.910  79.724  1.00  0.00     0.010 A 
ATOM     12  C   UNL     1      99.629 121.197  79.482  1.00  0.00     0.046 A 
ATOM     13  C   UNL     1     100.092 120.990  81.691  1.00  0.00     0.087 A 
ATOM     14  C   UNL     1      99.841 119.359  77.404  1.00  0.00     0.009 A 
ATOM     15  C   UNL     1      99.269 121.614  78.197  1.00  0.00     0.027 A 
ATOM     16  C   UNL     1      99.384 120.665  77.165  1.00  0.00     0.003 A 
ATOM     17  H   UNL     1      99.382 122.807  80.841  1.00  0.00     0.166 HD
ENDROOT
BRANCH   7  18
ATOM     18  C   UNL     1     103.592 115.493  78.390  1.00  0.00     0.230 C 
ATOM     19  O   UNL     1     104.045 114.381  78.102  1.00  0.00    -0.274 OA
ATOM     20  N   UNL     1     104.358 116.659  78.207  1.00  0.00    -0.343 N 
BRANCH  20  21
ATOM     21  C   UNL     1     104.000 117.948  78.821  1.00  0.00     0.116 C 
ATOM     22  C   UNL     1     104.086 119.156  77.901  1.00  0.00     0.027 C 
ENDBRANCH  20  21
BRANCH  20  23
ATOM     23  C   UNL     1     105.756 116.448  77.809  1.00  0.00     0.116 C 
ATOM     24  C   UNL     1     106.697 116.363  79.003  1.00  0.00     0.027 C 
ENDBRANCH  20  23
ENDBRANCH   7  18
BRANCH   1  25
ATOM     25  C   UNL     1     100.752 115.646  82.444  1.00  0.00     0.082 C 
ATOM     26  C   UNL     1      99.577 114.730  82.774  1.00  0.00     0.021 C 
ENDBRANCH   1  25
TORSDOF 4
ENDMDL
MODEL 5
REMARK VINA RESULT:    -7.160      2.207      6.655
REMARK INTER + INTRA:          -9.214
REMARK INTER:                 -10.167
REMARK INTRA:                   0.953
REMARK UNBOUND:                -0.379
REMARK SMILES CCN(CC)C(=O)[C@@H]1C=C2c3cccc4[nH]cc(c34)C[C@H]2N(CC)C1
REMARK SMILES IDX 22 1 16 2 21 3 10 4 20 5 25 6 8 7 18 8 11 9 9 10 19 11 15 12
REMARK SMILES IDX 17 13 12 14 14 15 13 16 6 18 7 19 3 20 2 21 1 22 4 23 5 24
REMARK SMILES IDX 23 25 24 26
REMARK H PARENT 16 17
ROOT
ATOM      1  N   UNL     1     100.850 118.529  83.038  1.00  0.00    -0.295 NA
ATOM      2  N   UNL     1     102.520 115.562  78.038  1.00  0.00    -0.361 N 
ATOM      3  C   UNL     1     101.489 118.045  81.777  1.00  0.00     0.091 C 
ATOM      4  C   UNL     1     101.666 119.177  80.723  1.00  0.00    -0.026 C 
ATOM      5  C   UNL     1     100.858 116.748  81.131  1.00  0.00     0.061 C 
ATOM      6  C   UNL     1      99.724 119.429  82.740  1.00  0.00     0.102 C 
ATOM      7  C   UNL     1     100.226 120.715  82.049  1.00  0.00     0.116 C 
ATOM      8  C   UNL     1     101.574 116.416  79.860  1.00  0.00    -0.020 A 
ATOM      9  C   UNL     1     102.395 118.799  79.494  1.00  0.00    -0.011 A 
ATOM     10  C   UNL     1     101.103 120.391  80.861  1.00  0.00    -0.007 C 
ATOM     11  C   UNL     1     102.267 117.439  79.171  1.00  0.00     0.010 A 
ATOM     12  C   UNL     1     102.856 116.900  78.042  1.00  0.00     0.046 A 
ATOM     13  C   UNL     1     101.743 115.258  79.138  1.00  0.00     0.087 A 
ATOM     14  C   UNL     1     103.141 119.604  78.630  1.00  0.00     0.009 A 
ATOM     15  C   UNL     1     103.611 117.686  77.167  1.00  0.00     0.027 A 
ATOM     16  C   UNL     1     103.741 119.049  77.489  1.00  0.00     0.003 A 
ATOM     17  H   UNL     1     102.803 114.902  77.328  1.00  0.00     0.166 HD
ENDROOT
BRANCH   7  18
ATOM     18  C   UNL     1      98.999 121.550  81.636  1.00  0.00     0.230 C 
ATOM     19  O   UNL     1      98.031 121.665  82.395  1.00  0.00    -0.274 OA
ATOM     20  N   UNL     1      99.029 122.212  80.395  1.00  0.00    -0.343 N 
BRANCH  20  21
ATOM     21  C   UNL     1      99.987 121.861  79.333  1.00  0.00     0.116 C 
ATOM     22  C   UNL     1      99.602 122.311  77.932  1.00  0.00     0.027 C 
ENDBRANCH  20  21
BRANCH  20  23
ATOM     23  C   UNL     1      97.792 122.903  80.009  1.00  0.00     0.116 C 
ATOM     24  C   UNL     1      97.751 124.343  80.500  1.00  0.00     0.027 C 
ENDBRANCH  20  23
ENDBRANCH   7  18
BRANCH   1  25
ATOM     25  C   UNL     1     100.505 117.444  83.960  1.00  0.00     0.082 C 
ATOM     26  C   UNL     1     100.318 117.934  85.393  1.00  0.00     0.021 C 
ENDBRANCH   1  25
TORSDOF 4
ENDMDL
MODEL 6
REMARK VINA RESULT:    -6.263      2.265      6.765
REMARK INTER + INTRA:          -8.107
REMARK INTER:                  -8.561
REMARK INTRA:                   0.454
REMARK UNBOUND:                -0.379
REMARK SMILES CCN(CC)C(=O)[C@@H]1C=C2c3cccc4[nH]cc(c34)C[C@H]2N(CC)C1
REMARK SMILES IDX 22 1 16 2 21 3 10 4 20 5 25 6 8 7 18 8 11 9 9 10 19 11 15 12
REMARK SMILES IDX 17 13 12 14 14 15 13 16 6 18 7 19 3 20 2 21 1 22 4 23 5 24
REMARK SMILES IDX 23 25 24 26
REMARK H PARENT 16 17
ROOT
ATOM      1  N   UNL     1     100.802 118.986  82.002  1.00  0.00    -0.295 NA
ATOM      2  N   UNL     1     103.065 114.914  78.144  1.00  0.00    -0.361 N 
ATOM      3  C   UNL     1     101.619 118.197  81.031  1.00  0.00     0.091 C 
ATOM      4  C   UNL     1     102.156 119.067  79.856  1.00  0.00    -0.026 C 
ATOM      5  C   UNL     1     100.970 116.855  80.505  1.00  0.00     0.061 C 
ATOM      6  C   UNL     1      99.889 119.899  81.296  1.00  0.00     0.102 C 
ATOM      7  C   UNL     1     100.687 120.965  80.515  1.00  0.00     0.116 C 
ATOM      8  C   UNL     1     101.883 116.206  79.514  1.00  0.00    -0.020 A 
ATOM      9  C   UNL     1     103.067 118.380  78.916  1.00  0.00    -0.011 A 
ATOM     10  C   UNL     1     101.740 120.328  79.638  1.00  0.00    -0.007 C 
ATOM     11  C   UNL     1     102.832 117.000  78.827  1.00  0.00     0.010 A 
ATOM     12  C   UNL     1     103.566 116.189  77.980  1.00  0.00     0.046 A 
ATOM     13  C   UNL     1     102.045 114.913  79.074  1.00  0.00     0.087 A 
ATOM     14  C   UNL     1     104.074 118.920  78.113  1.00  0.00     0.009 A 
ATOM     15  C   UNL     1     104.581 116.708  77.172  1.00  0.00     0.027 A 
ATOM     16  C   UNL     1     104.819 118.092  77.260  1.00  0.00     0.003 A 
ATOM     17  H   UNL     1     103.400 114.099  77.649  1.00  0.00     0.166 HD
ENDROOT
BRANCH   7  18
ATOM     18  C   UNL     1      99.691 121.801  79.687  1.00  0.00     0.230 C 
ATOM     19  O   UNL     1      99.835 121.925  78.467  1.00  0.00    -0.274 OA
ATOM     20  N   UNL     1      98.592 122.378  80.351  1.00  0.00    -0.343 N 
BRANCH  20  21
ATOM     21  C   UNL     1      98.543 122.535  81.813  1.00  0.00     0.116 C 
ATOM     22  C   UNL     1      97.717 121.494  82.555  1.00  0.00     0.027 C 
ENDBRANCH  20  21
BRANCH  20  23
ATOM     23  C   UNL     1      97.738 123.249  79.533  1.00  0.00     0.116 C 
ATOM     24  C   UNL     1      97.300 124.502  80.276  1.00  0.00     0.027 C 
ENDBRANCH  20  23
ENDBRANCH   7  18
BRANCH   1  25
ATOM     25  C   UNL     1     100.135 118.150  83.003  1.00  0.00     0.082 C 
ATOM     26  C   UNL     1     101.103 117.617  84.057  1.00  0.00     0.021 C 
ENDBRANCH   1  25
TORSDOF 4
ENDMDL
MODEL 7
REMARK VINA RESULT:    -6.211      2.932      5.881
REMARK INTER + INTRA:          -8.042
REMARK INTER:                  -7.739
REMARK INTRA:                  -0.304
REMARK UNBOUND:                -0.379
REMARK SMILES CCN(CC)C(=O)[C@@H]1C=C2c3cccc4[nH]cc(c34)C[C@H]2N(CC)C1
REMARK SMILES IDX 22 1 16 2 21 3 10 4 20 5 25 6 8 7 18 8 11 9 9 10 19 11 15 12
REMARK SMILES IDX 17 13 12 14 14 15 13 16 6 18 7 19 3 20 2 21 1 22 4 23 5 24
REMARK SMILES IDX 23 25 24 26
REMARK H PARENT 16 17
ROOT
ATOM      1  N   UNL     1      99.739 119.827  82.297  1.00  0.00    -0.295 NA
ATOM      2  N   UNL     1     103.625 118.355  77.902  1.00  0.00    -0.361 N 
ATOM      3  C   UNL     1     100.516 119.180  81.197  1.00  0.00     0.091 C 
ATOM      4  C   UNL     1     100.882 117.700  81.514  1.00  0.00    -0.026 C 
ATOM      5  C   UNL     1     101.770 119.983  80.666  1.00  0.00     0.061 C 
ATOM      6  C   UNL     1     100.307 119.483  83.611  1.00  0.00     0.102 C 
ATOM      7  C   UNL     1     100.163 117.970  83.882  1.00  0.00     0.116 C 
ATOM      8  C   UNL     1     102.465 119.191  79.605  1.00  0.00    -0.020 A 
ATOM      9  C   UNL     1     101.553 116.959  80.425  1.00  0.00    -0.011 A 
ATOM     10  C   UNL     1     100.704 117.153  82.730  1.00  0.00    -0.007 C 
ATOM     11  C   UNL     1     102.298 117.786  79.571  1.00  0.00     0.010 A 
ATOM     12  C   UNL     1     103.019 117.274  78.507  1.00  0.00     0.046 A 
ATOM     13  C   UNL     1     103.294 119.523  78.559  1.00  0.00     0.087 A 
ATOM     14  C   UNL     1     101.561 115.586  80.169  1.00  0.00     0.009 A 
ATOM     15  C   UNL     1     103.036 115.904  78.230  1.00  0.00     0.027 A 
ATOM     16  C   UNL     1     102.289 115.073  79.084  1.00  0.00     0.003 A 
ATOM     17  H   UNL     1     104.226 118.295  77.092  1.00  0.00     0.166 HD
ENDROOT
BRANCH   7  18
ATOM     18  C   UNL     1     100.896 117.646  85.199  1.00  0.00     0.230 C 
ATOM     19  O   UNL     1     101.939 116.985  85.193  1.00  0.00    -0.274 OA
ATOM     20  N   UNL     1     100.371 118.162  86.398  1.00  0.00    -0.343 N 
BRANCH  20  21
ATOM     21  C   UNL     1      98.993 118.668  86.507  1.00  0.00     0.116 C 
ATOM     22  C   UNL     1      98.471 118.841  87.926  1.00  0.00     0.027 C 
ENDBRANCH  20  21
BRANCH  20  23
ATOM     23  C   UNL     1     101.050 117.733  87.629  1.00  0.00     0.116 C 
ATOM     24  C   UNL     1     102.128 118.712  88.072  1.00  0.00     0.027 C 
ENDBRANCH  20  23
ENDBRANCH   7  18
BRANCH   1  25
ATOM     25  C   UNL     1      99.553 121.266  82.098  1.00  0.00     0.082 C 
ATOM     26  C   UNL     1      98.119 121.713  82.368  1.00  0.00     0.021 C 
ENDBRANCH   1  25
TORSDOF 4
ENDMDL
MODEL 8
REMARK VINA RESULT:    -6.019      1.837      2.742
REMARK INTER + INTRA:          -7.806
REMARK INTER:                  -8.388
REMARK INTRA:                   0.582
REMARK UNBOUND:                -0.379
REMARK SMILES CCN(CC)C(=O)[C@@H]1C=C2c3cccc4[nH]cc(c34)C[C@H]2N(CC)C1
REMARK SMILES IDX 22 1 16 2 21 3 10 4 20 5 25 6 8 7 18 8 11 9 9 10 19 11 15 12
REMARK SMILES IDX 17 13 12 14 14 15 13 16 6 18 7 19 3 20 2 21 1 22 4 23 5 24
REMARK SMILES IDX 23 25 24 26
REMARK H PARENT 16 17
ROOT
ATOM      1  N   UNL     1     102.927 119.492  79.372  1.00  0.00    -0.295 NA
ATOM      2  N   UNL     1      98.273 122.825  81.325  1.00  0.00    -0.361 N 
ATOM      3  C   UNL     1     101.888 120.223  80.159  1.00  0.00     0.091 C 
ATOM      4  C   UNL     1     101.244 119.337  81.266  1.00  0.00    -0.026 C 
ATOM      5  C   UNL     1     100.788 120.986  79.319  1.00  0.00     0.061 C 
ATOM      6  C   UNL     1     102.472 118.131  79.043  1.00  0.00     0.102 C 
ATOM      7  C   UNL     1     102.307 117.291  80.327  1.00  0.00     0.116 C 
ATOM      8  C   UNL     1      99.801 121.627  80.243  1.00  0.00    -0.020 A 
ATOM      9  C   UNL     1     100.289 120.024  82.161  1.00  0.00    -0.011 A 
ATOM     10  C   UNL     1     101.452 118.010  81.346  1.00  0.00    -0.007 C 
ATOM     11  C   UNL     1      99.643 121.110  81.551  1.00  0.00     0.010 A 
ATOM     12  C   UNL     1      98.694 121.863  82.219  1.00  0.00     0.046 A 
ATOM     13  C   UNL     1      98.939 122.692  80.123  1.00  0.00     0.087 A 
ATOM     14  C   UNL     1      99.940 119.719  83.479  1.00  0.00     0.009 A 
ATOM     15  C   UNL     1      98.335 121.578  83.539  1.00  0.00     0.027 A 
ATOM     16  C   UNL     1      98.981 120.489  84.153  1.00  0.00     0.003 A 
ATOM     17  H   UNL     1      97.573 123.525  81.525  1.00  0.00     0.166 HD
ENDROOT
BRANCH   7  18
ATOM     18  C   UNL     1     101.697 115.930  79.936  1.00  0.00     0.230 C 
ATOM     19  O   UNL     1     102.276 114.877  80.218  1.00  0.00    -0.274 OA
ATOM     20  N   UNL     1     100.446 115.920  79.292  1.00  0.00    -0.343 N 
BRANCH  20  21
ATOM     21  C   UNL     1      99.874 117.117  78.654  1.00  0.00     0.116 C 
ATOM     22  C   UNL     1     100.241 117.316  77.191  1.00  0.00     0.027 C 
ENDBRANCH  20  21
BRANCH  20  23
ATOM     23  C   UNL     1      99.966 114.605  78.849  1.00  0.00     0.116 C 
ATOM     24  C   UNL     1      98.879 114.044  79.755  1.00  0.00     0.027 C 
ENDBRANCH  20  23
ENDBRANCH   7  18
BRANCH   1  25
ATOM     25  C   UNL     1     103.403 120.248  78.211  1.00  0.00     0.082 C 
ATOM     26  C   UNL     1     104.079 119.357  77.172  1.00  0.00     0.021 C 
ENDBRANCH   1  25
TORSDOF 4
ENDMDL
