MODEL 1
REMARK VINA RESULT:    -8.944      0.000      0.000
REMARK INTER + INTRA:         -11.697
REMARK INTER:                 -11.036
REMARK INTRA:                  -0.661
REMARK UNBOUND:                -0.661
REMARK SMILES CCN(CC)C(=O)[C@@H]1C=C2c3cccc4[nH]cc(c34)C[C@H]2N(CC)C1
REMARK SMILES IDX 22 1 16 2 21 3 10 4 20 5 25 6 8 7 18 8 11 9 9 10 19 11 15 12
REMARK SMILES IDX 17 13 12 14 14 15 13 16 6 18 7 19 3 20 2 21 1 22 4 23 5 24
REMARK SMILES IDX 23 25 24 26
REMARK H PARENT 16 17
ROOT
ATOM      1  N   UNL     1     128.122 136.512 120.795  1.00  0.00    -0.295 NA
ATOM      2  N   UNL     1     127.649 131.668 117.204  1.00  0.00    -0.361 N 
ATOM      3  C   UNL     1     127.678 135.400 119.900  1.00  0.00     0.091 C 
ATOM      4  C   UNL     1     126.410 134.672 120.436  1.00  0.00    -0.026 C 
ATOM      5  C   UNL     1     128.795 134.370 119.466  1.00  0.00     0.061 C 
ATOM      6  C   UNL     1     128.059 136.103 122.207  1.00  0.00     0.102 C 
ATOM      7  C   UNL     1     126.598 135.835 122.628  1.00  0.00     0.116 C 
ATOM      8  C   UNL     1     128.191 133.299 118.615  1.00  0.00    -0.020 A 
ATOM      9  C   UNL     1     125.846 133.634 119.547  1.00  0.00    -0.011 A 
ATOM     10  C   UNL     1     125.917 134.886 121.669  1.00  0.00    -0.007 C 
ATOM     11  C   UNL     1     126.806 133.032 118.720  1.00  0.00     0.010 A 
ATOM     12  C   UNL     1     126.475 132.020 117.837  1.00  0.00     0.046 A 
ATOM     13  C   UNL     1     128.696 132.438 117.668  1.00  0.00     0.087 A 
ATOM     14  C   UNL     1     124.530 133.175 119.455  1.00  0.00     0.009 A 
ATOM     15  C   UNL     1     125.164 131.549 117.725  1.00  0.00     0.027 A 
ATOM     16  C   UNL     1     124.200 132.151 118.553  1.00  0.00     0.003 A 
ATOM     17  H   UNL     1     127.727 130.945 116.502  1.00  0.00     0.166 HD
ENDROOT
BRANCH   7  18
ATOM     18  C   UNL     1     126.606 135.278 124.065  1.00  0.00     0.230 C 
ATOM     19  O   UNL     1     127.225 134.244 124.336  1.00  0.00    -0.274 OA
ATOM     20  N   UNL     1     125.931 136.001 125.065  1.00  0.00    -0.343 N 
BRANCH  20  21
ATOM     21  C   UNL     1     124.931 137.036 124.756  1.00  0.00     0.116 C 
ATOM     22  C   UNL     1     125.015 138.299 125.601  1.00  0.00     0.027 C 
ENDBRANCH  20  21
BRANCH  20  23
ATOM     23  C   UNL     1     125.883 135.368 126.390  1.00  0.00     0.116 C 
ATOM     24  C   UNL     1     124.525 134.754 126.695  1.00  0.00     0.027 C 
ENDBRANCH  20  23
ENDBRANCH   7  18
BRANCH   1  25
ATOM     25  C   UNL     1     129.415 137.080 120.406  1.00  0.00     0.082 C 
ATOM     26  C   UNL     1     129.697 138.414 121.092  1.00  0.00     0.021 C 
ENDBRANCH   1  25
TORSDOF 4
ENDMDL
MODEL 2
REMARK VINA RESULT:    -8.829      2.131      4.338
REMARK INTER + INTRA:         -11.555
REMARK INTER:                 -10.868
REMARK INTRA:                  -0.687
REMARK UNBOUND:                -0.661
REMARK SMILES CCN(CC)C(=O)[C@@H]1C=C2c3cccc4[nH]cc(c34)C[C@H]2N(CC)C1
REMARK SMILES IDX 22 1 16 2 21 3 10 4 20 5 25 6 8 7 18 8 11 9 9 10 19 11 15 12
REMARK SMILES IDX 17 13 12 14 14 15 13 16 6 18 7 19 3 20 2 21 1 22 4 23 5 24
REMARK SMILES IDX 23 25 24 26
REMARK H PARENT 16 17
ROOT
ATOM      1  N   UNL     1     125.845 132.573 120.955  1.00  0.00    -0.295 NA
ATOM      2  N   UNL     1     129.584 135.601 117.291  1.00  0.00    -0.361 N 
ATOM      3  C   UNL     1     126.998 133.246 120.286  1.00  0.00     0.091 C 
ATOM      4  C   UNL     1     127.810 134.151 121.259  1.00  0.00    -0.026 C 
ATOM      5  C   UNL     1     126.675 133.998 118.934  1.00  0.00     0.061 C 
ATOM      6  C   UNL     1     125.135 133.510 121.841  1.00  0.00     0.102 C 
ATOM      7  C   UNL     1     126.047 133.950 123.006  1.00  0.00     0.116 C 
ATOM      8  C   UNL     1     127.913 134.655 118.412  1.00  0.00    -0.020 A 
ATOM      9  C   UNL     1     129.033 134.761 120.697  1.00  0.00    -0.011 A 
ATOM     10  C   UNL     1     127.379 134.453 122.498  1.00  0.00    -0.007 C 
ATOM     11  C   UNL     1     128.961 134.967 119.311  1.00  0.00     0.010 A 
ATOM     12  C   UNL     1     129.998 135.551 118.606  1.00  0.00     0.046 A 
ATOM     13  C   UNL     1     128.321 135.059 117.162  1.00  0.00     0.087 A 
ATOM     14  C   UNL     1     130.195 135.171 121.354  1.00  0.00     0.009 A 
ATOM     15  C   UNL     1     131.171 135.964 119.243  1.00  0.00     0.027 A 
ATOM     16  C   UNL     1     131.246 135.758 120.632  1.00  0.00     0.003 A 
ATOM     17  H   UNL     1     130.131 135.984 116.533  1.00  0.00     0.166 HD
ENDROOT
BRANCH   7  18
ATOM     18  C   UNL     1     125.305 135.032 123.815  1.00  0.00     0.230 C 
ATOM     19  O   UNL     1     124.945 136.084 123.278  1.00  0.00    -0.274 OA
ATOM     20  N   UNL     1     125.010 134.770 125.165  1.00  0.00    -0.343 N 
BRANCH  20  21
ATOM     21  C   UNL     1     125.678 133.704 125.930  1.00  0.00     0.116 C 
ATOM     22  C   UNL     1     126.584 134.179 127.057  1.00  0.00     0.027 C 
ENDBRANCH  20  21
BRANCH  20  23
ATOM     23  C   UNL     1     124.398 135.877 125.912  1.00  0.00     0.116 C 
ATOM     24  C   UNL     1     123.057 135.498 126.524  1.00  0.00     0.027 C 
ENDBRANCH  20  23
ENDBRANCH   7  18
BRANCH   1  25
ATOM     25  C   UNL     1     124.965 131.873 120.016  1.00  0.00     0.082 C 
ATOM     26  C   UNL     1     123.594 132.534 119.897  1.00  0.00     0.021 C 
ENDBRANCH   1  25
TORSDOF 4
ENDMDL
MODEL 3
REMARK VINA RESULT:    -8.539      2.223      4.328
REMARK INTER + INTRA:         -11.197
REMARK INTER:                 -10.668
REMARK INTRA:                  -0.528
REMARK UNBOUND:                -0.661
REMARK SMILES CCN(CC)C(=O)[C@@H]1C=C2c3cccc4[nH]cc(c34)C[C@H]2N(CC)C1
REMARK SMILES IDX 22 1 16 2 21 3 10 4 20 5 25 6 8 7 18 8 11 9 9 10 19 11 15 12
REMARK SMILES IDX 17 13 12 14 14 15 13 16 6 18 7 19 3 20 2 21 1 22 4 23 5 24
REMARK SMILES IDX 23 25 24 26
REMARK H PARENT 16 17
ROOT
ATOM      1  N   UNL     1     125.493 133.571 121.124  1.00  0.00    -0.295 NA
ATOM      2  N   UNL     1     129.429 135.876 117.152  1.00  0.00    -0.361 N 
ATOM      3  C   UNL     1     126.695 134.015 120.356  1.00  0.00     0.091 C 
ATOM      4  C   UNL     1     127.755 134.715 121.257  1.00  0.00    -0.026 C 
ATOM      5  C   UNL     1     126.412 134.849 119.045  1.00  0.00     0.061 C 
ATOM      6  C   UNL     1     125.067 134.609 122.077  1.00  0.00     0.102 C 
ATOM      7  C   UNL     1     126.149 134.829 123.156  1.00  0.00     0.116 C 
ATOM      8  C   UNL     1     127.707 135.257 118.415  1.00  0.00    -0.020 A 
ATOM      9  C   UNL     1     129.021 135.081 120.589  1.00  0.00    -0.011 A 
ATOM     10  C   UNL     1     127.505 135.067 122.532  1.00  0.00    -0.007 C 
ATOM     11  C   UNL     1     128.871 135.331 119.217  1.00  0.00     0.010 A 
ATOM     12  C   UNL     1     129.938 135.712 118.424  1.00  0.00     0.046 A 
ATOM     13  C   UNL     1     128.076 135.601 117.136  1.00  0.00     0.087 A 
ATOM     14  C   UNL     1     130.296 135.233 121.140  1.00  0.00     0.009 A 
ATOM     15  C   UNL     1     131.222 135.865 118.954  1.00  0.00     0.027 A 
ATOM     16  C   UNL     1     131.376 135.615 120.329  1.00  0.00     0.003 A 
ATOM     17  H   UNL     1     129.973 136.160 116.350  1.00  0.00     0.166 HD
ENDROOT
BRANCH   7  18
ATOM     18  C   UNL     1     125.715 136.018 124.036  1.00  0.00     0.230 C 
ATOM     19  O   UNL     1     126.291 137.107 123.952  1.00  0.00    -0.274 OA
ATOM     20  N   UNL     1     124.619 135.842 124.901  1.00  0.00    -0.343 N 
BRANCH  20  21
ATOM     21  C   UNL     1     124.111 134.512 125.276  1.00  0.00     0.116 C 
ATOM     22  C   UNL     1     122.671 134.227 124.874  1.00  0.00     0.027 C 
ENDBRANCH  20  21
BRANCH  20  23
ATOM     23  C   UNL     1     124.319 136.972 125.790  1.00  0.00     0.116 C 
ATOM     24  C   UNL     1     123.195 137.850 125.260  1.00  0.00     0.027 C 
ENDBRANCH  20  23
ENDBRANCH   7  18
BRANCH   1  25
ATOM     25  C   UNL     1     124.410 133.085 120.265  1.00  0.00     0.082 C 
ATOM     26  C   UNL     1     123.115 132.848 121.036  1.00  0.00     0.021 C 
ENDBRANCH   1  25
TORSDOF 4
ENDMDL
MODEL 4
REMARK VINA RESULT:    -8.060      2.710      5.716
REMARK INTER + INTRA:         -10.605
REMARK INTER:                 -10.092
REMARK INTRA:                  -0.513
REMARK UNBOUND:                -0.661
REMARK SMILES CCN(CC)C(=O)[C@@H]1C=C2c3cccc4[nH]cc(c34)C[C@H]2N(CC)C1
REMARK SMILES IDX 22 1 16 2 21 3 10 4 20 5 25 6 8 7 18 8 11 9 9 10 19 11 15 12
REMARK SMILES IDX 17 13 12 14 14 15 13 16 6 18 7 19 3 20 2 21 1 22 4 23 5 24
REMARK SMILES IDX 23 25 24 26
REMARK H PARENT 16 17
ROOT
ATOM      1  N   UNL     1     124.375 135.463 126.130  1.00  0.00    -0.295 NA
ATOM      2  N   UNL     1     125.624 133.174 120.673  1.00  0.00    -0.361 N 
ATOM      3  C   UNL     1     124.997 135.000 124.853  1.00  0.00     0.091 C 
ATOM      4  C   UNL     1     125.901 136.087 124.200  1.00  0.00    -0.026 C 
ATOM      5  C   UNL     1     124.016 134.354 123.796  1.00  0.00     0.061 C 
ATOM      6  C   UNL     1     123.877 136.842 125.999  1.00  0.00     0.102 C 
ATOM      7  C   UNL     1     125.048 137.821 125.769  1.00  0.00     0.116 C 
ATOM      8  C   UNL     1     124.775 133.984 122.562  1.00  0.00    -0.020 A 
ATOM      9  C   UNL     1     126.641 135.663 122.993  1.00  0.00    -0.011 A 
ATOM     10  C   UNL     1     125.931 137.361 124.632  1.00  0.00    -0.007 C 
ATOM     11  C   UNL     1     125.993 134.647 122.275  1.00  0.00     0.010 A 
ATOM     12  C   UNL     1     126.517 134.134 121.102  1.00  0.00     0.046 A 
ATOM     13  C   UNL     1     124.565 133.074 121.552  1.00  0.00     0.087 A 
ATOM     14  C   UNL     1     127.846 136.151 122.482  1.00  0.00     0.009 A 
ATOM     15  C   UNL     1     127.722 134.605 120.576  1.00  0.00     0.027 A 
ATOM     16  C   UNL     1     128.375 135.624 121.294  1.00  0.00     0.003 A 
ATOM     17  H   UNL     1     125.734 132.625 119.832  1.00  0.00     0.166 HD
ENDROOT
BRANCH   7  18
ATOM     18  C   UNL     1     124.459 139.220 125.499  1.00  0.00     0.230 C 
ATOM     19  O   UNL     1     123.334 139.345 125.007  1.00  0.00    -0.274 OA
ATOM     20  N   UNL     1     125.218 140.345 125.870  1.00  0.00    -0.343 N 
BRANCH  20  21
ATOM     21  C   UNL     1     126.661 140.270 126.152  1.00  0.00     0.116 C 
ATOM     22  C   UNL     1     127.482 141.462 125.680  1.00  0.00     0.027 C 
ENDBRANCH  20  21
BRANCH  20  23
ATOM     23  C   UNL     1     124.655 141.648 125.492  1.00  0.00     0.116 C 
ATOM     24  C   UNL     1     124.081 142.404 126.682  1.00  0.00     0.027 C 
ENDBRANCH  20  23
ENDBRANCH   7  18
BRANCH   1  25
ATOM     25  C   UNL     1     123.378 134.527 126.656  1.00  0.00     0.082 C 
ATOM     26  C   UNL     1     122.275 135.229 127.444  1.00  0.00     0.021 C 
ENDBRANCH   1  25
TORSDOF 4
ENDMDL
MODEL 5
REMARK VINA RESULT:    -8.049      2.241      4.796
REMARK INTER + INTRA:         -10.592
REMARK INTER:                  -9.842
REMARK INTRA:                  -0.749
REMARK UNBOUND:                -0.661
REMARK SMILES CCN(CC)C(=O)[C@@H]1C=C2c3cccc4[nH]cc(c34)C[C@H]2N(CC)C1
REMARK SMILES IDX 22 1 16 2 21 3 10 4 20 5 25 6 8 7 18 8 11 9 9 10 19 11 15 12
REMARK SMILES IDX 17 13 12 14 14 15 13 16 6 18 7 19 3 20 2 21 1 22 4 23 5 24
REMARK SMILES IDX 23 25 24 26
REMARK H PARENT 16 17
ROOT
ATOM      1  N   UNL     1     126.673 133.157 121.351  1.00  0.00    -0.295 NA
ATOM      2  N   UNL     1     128.901 137.784 118.156  1.00  0.00    -0.361 N 
ATOM      3  C   UNL     1     127.441 134.323 120.819  1.00  0.00     0.091 C 
ATOM      4  C   UNL     1     127.664 135.432 121.889  1.00  0.00    -0.026 C 
ATOM      5  C   UNL     1     126.924 134.932 119.456  1.00  0.00     0.061 C 
ATOM      6  C   UNL     1     125.541 133.610 122.177  1.00  0.00     0.102 C 
ATOM      7  C   UNL     1     126.050 134.340 123.438  1.00  0.00     0.116 C 
ATOM      8  C   UNL     1     127.763 136.112 119.078  1.00  0.00    -0.020 A 
ATOM      9  C   UNL     1     128.513 136.565 121.469  1.00  0.00    -0.011 A 
ATOM     10  C   UNL     1     127.041 135.424 123.082  1.00  0.00    -0.007 C 
ATOM     11  C   UNL     1     128.471 136.806 120.088  1.00  0.00     0.010 A 
ATOM     12  C   UNL     1     129.180 137.842 119.506  1.00  0.00     0.046 A 
ATOM     13  C   UNL     1     128.043 136.737 117.886  1.00  0.00     0.087 A 
ATOM     14  C   UNL     1     129.300 137.415 122.252  1.00  0.00     0.009 A 
ATOM     15  C   UNL     1     129.976 138.699 120.270  1.00  0.00     0.027 A 
ATOM     16  C   UNL     1     130.020 138.460 121.655  1.00  0.00     0.003 A 
ATOM     17  H   UNL     1     129.273 138.422 117.467  1.00  0.00     0.166 HD
ENDROOT
BRANCH   7  18
ATOM     18  C   UNL     1     124.830 134.912 124.187  1.00  0.00     0.230 C 
ATOM     19  O   UNL     1     124.143 135.805 123.682  1.00  0.00    -0.274 OA
ATOM     20  N   UNL     1     124.495 134.358 125.437  1.00  0.00    -0.343 N 
BRANCH  20  21
ATOM     21  C   UNL     1     125.436 133.540 126.219  1.00  0.00     0.116 C 
ATOM     22  C   UNL     1     126.417 134.320 127.083  1.00  0.00     0.027 C 
ENDBRANCH  20  21
BRANCH  20  23
ATOM     23  C   UNL     1     123.390 135.013 126.150  1.00  0.00     0.116 C 
ATOM     24  C   UNL     1     122.159 134.126 126.260  1.00  0.00     0.027 C 
ENDBRANCH  20  23
ENDBRANCH   7  18
BRANCH   1  25
ATOM     25  C   UNL     1     126.293 132.197 120.312  1.00  0.00     0.082 C 
ATOM     26  C   UNL     1     124.844 131.737 120.443  1.00  0.00     0.021 C 
ENDBRANCH   1  25
TORSDOF 4
ENDMDL
MODEL 6
REMARK VINA RESULT:    -8.035      1.263      1.907
REMARK INTER + INTRA:         -10.574
REMARK INTER:                 -10.655
REMARK INTRA:                   0.081
REMARK UNBOUND:                -0.661
REMARK SMILES CCN(CC)C(=O)[C@@H]1C=C2c3cccc4[nH]cc(c34)C[C@H]2N(CC)C1
REMARK SMILES IDX 22 1 16 2 21 3 10 4 20 5 25 6 8 7 18 8 11 9 9 10 19 11 15 12
REMARK SMILES IDX 17 13 12 14 14 15 13 16 6 18 7 19 3 20 2 21 1 22 4 23 5 24
REMARK SMILES IDX 23 25 24 26
REMARK H PARENT 16 17
ROOT
ATOM      1  N   UNL     1     128.271 136.539 120.335  1.00  0.00    -0.295 NA
ATOM      2  N   UNL     1     127.486 131.352 117.324  1.00  0.00    -0.361 N 
ATOM      3  C   UNL     1     127.758 135.365 119.565  1.00  0.00     0.091 C 
ATOM      4  C   UNL     1     126.428 134.802 120.149  1.00  0.00    -0.026 C 
ATOM      5  C   UNL     1     128.799 134.211 119.284  1.00  0.00     0.061 C 
ATOM      6  C   UNL     1     128.152 136.307 121.783  1.00  0.00     0.102 C 
ATOM      7  C   UNL     1     126.668 136.200 122.195  1.00  0.00     0.116 C 
ATOM      8  C   UNL     1     128.129 133.094 118.548  1.00  0.00    -0.020 A 
ATOM      9  C   UNL     1     125.800 133.712 119.373  1.00  0.00    -0.011 A 
ATOM     10  C   UNL     1     125.931 135.198 121.335  1.00  0.00    -0.007 C 
ATOM     11  C   UNL     1     126.725 132.946 118.647  1.00  0.00     0.010 A 
ATOM     12  C   UNL     1     126.332 131.864 117.880  1.00  0.00     0.046 A 
ATOM     13  C   UNL     1     128.582 132.092 117.722  1.00  0.00     0.087 A 
ATOM     14  C   UNL     1     124.454 133.345 119.301  1.00  0.00     0.009 A 
ATOM     15  C   UNL     1     124.991 131.483 117.790  1.00  0.00     0.027 A 
ATOM     16  C   UNL     1     124.062 132.249 118.517  1.00  0.00     0.003 A 
ATOM     17  H   UNL     1     127.520 130.548 116.714  1.00  0.00     0.166 HD
ENDROOT
BRANCH   7  18
ATOM     18  C   UNL     1     126.608 135.818 123.687  1.00  0.00     0.230 C 
ATOM     19  O   UNL     1     126.321 136.661 124.542  1.00  0.00    -0.274 OA
ATOM     20  N   UNL     1     126.845 134.477 124.041  1.00  0.00    -0.343 N 
BRANCH  20  21
ATOM     21  C   UNL     1     127.494 133.519 123.131  1.00  0.00     0.116 C 
ATOM     22  C   UNL     1     126.737 132.219 122.904  1.00  0.00     0.027 C 
ENDBRANCH  20  21
BRANCH  20  23
ATOM     23  C   UNL     1     126.880 134.194 125.482  1.00  0.00     0.116 C 
ATOM     24  C   UNL     1     125.551 133.671 126.007  1.00  0.00     0.027 C 
ENDBRANCH  20  23
ENDBRANCH   7  18
BRANCH   1  25
ATOM     25  C   UNL     1     129.610 136.959 119.916  1.00  0.00     0.082 C 
ATOM     26  C   UNL     1     130.597 137.006 121.079  1.00  0.00     0.021 C 
ENDBRANCH   1  25
TORSDOF 4
ENDMDL
MODEL 7
REMARK VINA RESULT:    -7.951      3.456      6.143
REMARK INTER + INTRA:         -10.471
REMARK INTER:                 -10.244
REMARK INTRA:                  -0.227
REMARK UNBOUND:                -0.661
REMARK SMILES CCN(CC)C(=O)[C@@H]1C=C2c3cccc4[nH]cc(c34)C[C@H]2N(CC)C1
REMARK SMILES IDX 22 1 16 2 21 3 10 4 20 5 25 6 8 7 18 8 11 9 9 10 19 11 15 12
REMARK SMILES IDX 17 13 12 14 14 15 13 16 6 18 7 19 3 20 2 21 1 22 4 23 5 24
REMARK SMILES IDX 23 25 24 26
REMARK H PARENT 16 17
ROOT
ATOM      1  N   UNL     1     122.624 134.900 126.321  1.00  0.00    -0.295 NA
ATOM      2  N   UNL     1     122.710 132.194 120.912  1.00  0.00    -0.361 N 
ATOM      3  C   UNL     1     122.979 134.227 125.034  1.00  0.00     0.091 C 
ATOM      4  C   UNL     1     124.144 134.942 124.288  1.00  0.00    -0.026 C 
ATOM      5  C   UNL     1     121.776 133.913 124.060  1.00  0.00     0.061 C 
ATOM      6  C   UNL     1     122.594 136.362 126.155  1.00  0.00     0.102 C 
ATOM      7  C   UNL     1     124.003 136.898 125.821  1.00  0.00     0.116 C 
ATOM      8  C   UNL     1     122.293 133.284 122.805  1.00  0.00    -0.020 A 
ATOM      9  C   UNL     1     124.627 134.269 123.064  1.00  0.00    -0.011 A 
ATOM     10  C   UNL     1     124.614 136.146 124.660  1.00  0.00    -0.007 C 
ATOM     11  C   UNL     1     123.639 133.504 122.426  1.00  0.00     0.010 A 
ATOM     12  C   UNL     1     123.892 132.820 121.251  1.00  0.00     0.046 A 
ATOM     13  C   UNL     1     121.734 132.468 121.849  1.00  0.00     0.087 A 
ATOM     14  C   UNL     1     125.890 134.323 122.469  1.00  0.00     0.009 A 
ATOM     15  C   UNL     1     125.149 132.857 120.642  1.00  0.00     0.027 A 
ATOM     16  C   UNL     1     126.142 133.623 121.279  1.00  0.00     0.003 A 
ATOM     17  H   UNL     1     122.582 131.619 120.091  1.00  0.00     0.166 HD
ENDROOT
BRANCH   7  18
ATOM     18  C   UNL     1     123.886 138.405 125.520  1.00  0.00     0.230 C 
ATOM     19  O   UNL     1     122.864 138.866 125.003  1.00  0.00    -0.274 OA
ATOM     20  N   UNL     1     124.953 139.244 125.892  1.00  0.00    -0.343 N 
BRANCH  20  21
ATOM     21  C   UNL     1     126.295 138.727 126.206  1.00  0.00     0.116 C 
ATOM     22  C   UNL     1     127.083 138.193 125.018  1.00  0.00     0.027 C 
ENDBRANCH  20  21
BRANCH  20  23
ATOM     23  C   UNL     1     124.831 140.650 125.485  1.00  0.00     0.116 C 
ATOM     24  C   UNL     1     125.884 141.538 126.132  1.00  0.00     0.027 C 
ENDBRANCH  20  23
ENDBRANCH   7  18
BRANCH   1  25
ATOM     25  C   UNL     1     121.412 134.356 126.938  1.00  0.00     0.082 C 
ATOM     26  C   UNL     1     121.354 134.617 128.440  1.00  0.00     0.021 C 
ENDBRANCH   1  25
TORSDOF 4
ENDMDL
MODEL 8
REMARK VINA RESULT:    -7.831      1.988      4.328
REMARK INTER + INTRA:         -10.324
REMARK INTER:                 -10.439
REMARK INTRA:                   0.115
REMARK UNBOUND:                -0.661
REMARK SMILES CCN(CC)C(=O)[C@@H]1C=C2c3cccc4[nH]cc(c34)C[C@H]2N(CC)C1
REMARK SMILES IDX 22 1 16 2 21 3 10 4 20 5 25 6 8 7 18 8 11 9 9 10 19 11 15 12
REMARK SMILES IDX 17 13 12 14 14 15 13 16 6 18 7 19 3 20 2 21 1 22 4 23 5 24
REMARK SMILES IDX 23 25 24 26
REMARK H PARENT 16 17
ROOT
ATOM      1  N   UNL     1     125.107 133.042 120.534  1.00  0.00    -0.295 NA
ATOM      2  N   UNL     1     128.428 137.088 117.503  1.00  0.00    -0.361 N 
ATOM      3  C   UNL     1     126.180 133.826 119.851  1.00  0.00     0.091 C 
ATOM      4  C   UNL     1     127.462 133.973 120.722  1.00  0.00    -0.026 C 
ATOM      5  C   UNL     1     125.740 135.213 119.234  1.00  0.00     0.061 C 
ATOM      6  C   UNL     1     124.987 133.441 121.946  1.00  0.00     0.102 C 
ATOM      7  C   UNL     1     126.273 133.085 122.721  1.00  0.00     0.116 C 
ATOM      8  C   UNL     1     126.925 135.895 118.627  1.00  0.00    -0.020 A 
ATOM      9  C   UNL     1     128.607 134.639 120.068  1.00  0.00    -0.011 A 
ATOM     10  C   UNL     1     127.501 133.619 122.020  1.00  0.00    -0.007 C 
ATOM     11  C   UNL     1     128.223 135.556 119.079  1.00  0.00     0.010 A 
ATOM     12  C   UNL     1     129.152 136.299 118.372  1.00  0.00     0.046 A 
ATOM     13  C   UNL     1     127.076 136.850 117.649  1.00  0.00     0.087 A 
ATOM     14  C   UNL     1     129.973 134.497 120.325  1.00  0.00     0.009 A 
ATOM     15  C   UNL     1     130.522 136.168 118.610  1.00  0.00     0.027 A 
ATOM     16  C   UNL     1     130.911 135.249 119.601  1.00  0.00     0.003 A 
ATOM     17  H   UNL     1     128.834 137.747 116.854  1.00  0.00     0.166 HD
ENDROOT
BRANCH   7  18
ATOM     18  C   UNL     1     126.146 133.650 124.150  1.00  0.00     0.230 C 
ATOM     19  O   UNL     1     125.870 132.909 125.098  1.00  0.00    -0.274 OA
ATOM     20  N   UNL     1     126.396 135.021 124.349  1.00  0.00    -0.343 N 
BRANCH  20  21
ATOM     21  C   UNL     1     126.409 135.993 123.243  1.00  0.00     0.116 C 
ATOM     22  C   UNL     1     127.654 136.864 123.155  1.00  0.00     0.027 C 
ENDBRANCH  20  21
BRANCH  20  23
ATOM     23  C   UNL     1     126.157 135.523 125.708  1.00  0.00     0.116 C 
ATOM     24  C   UNL     1     124.837 136.271 125.830  1.00  0.00     0.027 C 
ENDBRANCH  20  23
ENDBRANCH   7  18
BRANCH   1  25
ATOM     25  C   UNL     1     123.834 133.057 119.810  1.00  0.00     0.082 C 
ATOM     26  C   UNL     1     123.874 132.210 118.541  1.00  0.00     0.021 C 
ENDBRANCH   1  25
TORSDOF 4
ENDMDL
MODEL 9
REMARK VINA RESULT:    -7.694      2.088      6.288
REMARK INTER + INTRA:         -10.154
REMARK INTER:                  -9.589
REMARK INTRA:                  -0.565
REMARK UNBOUND:                -0.661
REMARK SMILES CCN(CC)C(=O)[C@@H]1C=C2c3cccc4[nH]cc(c34)C[C@H]2N(CC)C1
REMARK SMILES IDX 22 1 16 2 21 3 10 4 20 5 25 6 8 7 18 8 11 9 9 10 19 11 15 12
REMARK SMILES IDX 17 13 12 14 14 15 13 16 6 18 7 19 3 20 2 21 1 22 4 23 5 24
REMARK SMILES IDX 23 25 24 26
REMARK H PARENT 16 17
ROOT
ATOM      1  N   UNL     1     126.267 135.513 119.911  1.00  0.00    -0.295 NA
ATOM      2  N   UNL     1     123.394 133.860 124.971  1.00  0.00    -0.361 N 
ATOM      3  C   UNL     1     125.604 135.428 121.248  1.00  0.00     0.091 C 
ATOM      4  C   UNL     1     126.452 136.081 122.379  1.00  0.00    -0.026 C 
ATOM      5  C   UNL     1     125.078 133.999 121.673  1.00  0.00     0.061 C 
ATOM      6  C   UNL     1     127.702 135.201 120.019  1.00  0.00     0.102 C 
ATOM      7  C   UNL     1     128.425 136.265 120.872  1.00  0.00     0.116 C 
ATOM      8  C   UNL     1     124.484 134.067 123.044  1.00  0.00    -0.020 A 
ATOM      9  C   UNL     1     125.810 136.136 123.709  1.00  0.00    -0.011 A 
ATOM     10  C   UNL     1     127.726 136.473 122.196  1.00  0.00    -0.007 C 
ATOM     11  C   UNL     1     124.884 135.103 123.920  1.00  0.00     0.010 A 
ATOM     12  C   UNL     1     124.199 134.971 125.114  1.00  0.00     0.046 A 
ATOM     13  C   UNL     1     123.558 133.305 123.718  1.00  0.00     0.087 A 
ATOM     14  C   UNL     1     126.026 137.037 124.755  1.00  0.00     0.009 A 
ATOM     15  C   UNL     1     124.397 135.864 126.171  1.00  0.00     0.027 A 
ATOM     16  C   UNL     1     125.325 136.900 125.962  1.00  0.00     0.003 A 
ATOM     17  H   UNL     1     122.775 133.506 125.686  1.00  0.00     0.166 HD
ENDROOT
BRANCH   7  18
ATOM     18  C   UNL     1     129.886 135.813 121.067  1.00  0.00     0.230 C 
ATOM     19  O   UNL     1     130.171 134.614 121.129  1.00  0.00    -0.274 OA
ATOM     20  N   UNL     1     130.887 136.801 121.126  1.00  0.00    -0.343 N 
BRANCH  20  21
ATOM     21  C   UNL     1     130.586 138.220 121.378  1.00  0.00     0.116 C 
ATOM     22  C   UNL     1     130.609 138.642 122.840  1.00  0.00     0.027 C 
ENDBRANCH  20  21
BRANCH  20  23
ATOM     23  C   UNL     1     132.243 136.319 121.419  1.00  0.00     0.116 C 
ATOM     24  C   UNL     1     133.119 136.249 120.177  1.00  0.00     0.027 C 
ENDBRANCH  20  23
ENDBRANCH   7  18
BRANCH   1  25
ATOM     25  C   UNL     1     125.575 134.741 118.877  1.00  0.00     0.082 C 
ATOM     26  C   UNL     1     126.337 133.478 118.483  1.00  0.00     0.021 C 
ENDBRANCH   1  25
TORSDOF 4
ENDMDL
MODEL 10
REMARK VINA RESULT:    -7.620      2.734      4.904
REMARK INTER + INTRA:         -10.063
REMARK INTER:                  -9.673
REMARK INTRA:                  -0.390
REMARK UNBOUND:                -0.661
REMARK SMILES CCN(CC)C(=O)[C@@H]1C=C2c3cccc4[nH]cc(c34)C[C@H]2N(CC)C1
REMARK SMILES IDX 22 1 16 2 21 3 10 4 20 5 25 6 8 7 18 8 11 9 9 10 19 11 15 12
REMARK SMILES IDX 17 13 12 14 14 15 13 16 6 18 7 19 3 20 2 21 1 22 4 23 5 24
REMARK SMILES IDX 23 25 24 26
REMARK H PARENT 16 17
ROOT
ATOM      1  N   UNL     1     123.176 132.889 122.541  1.00  0.00    -0.295 NA
ATOM      2  N   UNL     1     127.288 134.457 118.392  1.00  0.00    -0.361 N 
ATOM      3  C   UNL     1     124.411 133.164 121.747  1.00  0.00     0.091 C 
ATOM      4  C   UNL     1     125.505 133.900 122.576  1.00  0.00    -0.026 C 
ATOM      5  C   UNL     1     124.194 133.851 120.340  1.00  0.00     0.061 C 
ATOM      6  C   UNL     1     122.808 134.058 123.356  1.00  0.00     0.102 C 
ATOM      7  C   UNL     1     123.891 134.339 124.420  1.00  0.00     0.116 C 
ATOM      8  C   UNL     1     125.518 134.100 119.690  1.00  0.00    -0.020 A 
ATOM      9  C   UNL     1     126.798 134.105 121.891  1.00  0.00    -0.011 A 
ATOM     10  C   UNL     1     125.265 134.416 123.796  1.00  0.00    -0.007 C 
ATOM     11  C   UNL     1     126.677 134.197 120.497  1.00  0.00     0.010 A 
ATOM     12  C   UNL     1     127.773 134.415 119.682  1.00  0.00     0.046 A 
ATOM     13  C   UNL     1     125.921 134.266 118.385  1.00  0.00     0.087 A 
ATOM     14  C   UNL     1     128.074 134.243 122.442  1.00  0.00     0.009 A 
ATOM     15  C   UNL     1     129.059 134.551 120.212  1.00  0.00     0.027 A 
ATOM     16  C   UNL     1     129.184 134.458 121.610  1.00  0.00     0.003 A 
ATOM     17  H   UNL     1     127.857 134.609 117.571  1.00  0.00     0.166 HD
ENDROOT
BRANCH   7  18
ATOM     18  C   UNL     1     123.524 135.649 125.146  1.00  0.00     0.230 C 
ATOM     19  O   UNL     1     124.098 136.706 124.865  1.00  0.00    -0.274 OA
ATOM     20  N   UNL     1     122.490 135.616 126.100  1.00  0.00    -0.343 N 
BRANCH  20  21
ATOM     21  C   UNL     1     122.003 134.362 126.697  1.00  0.00     0.116 C 
ATOM     22  C   UNL     1     120.707 134.475 127.486  1.00  0.00     0.027 C 
ENDBRANCH  20  21
BRANCH  20  23
ATOM     23  C   UNL     1     122.258 136.867 126.833  1.00  0.00     0.116 C 
ATOM     24  C   UNL     1     121.406 137.854 126.048  1.00  0.00     0.027 C 
ENDBRANCH  20  23
ENDBRANCH   7  18
BRANCH   1  25
ATOM     25  C   UNL     1     122.073 132.372 121.728  1.00  0.00     0.082 C 
ATOM     26  C   UNL     1     120.764 133.115 121.976  1.00  0.00     0.021 C 
ENDBRANCH   1  25
TORSDOF 4
ENDMDL
MODEL 11
REMARK VINA RESULT:    -7.556      2.388      7.442
REMARK INTER + INTRA:          -9.984
REMARK INTER:                  -9.538
REMARK INTRA:                  -0.446
REMARK UNBOUND:                -0.661
REMARK SMILES CCN(CC)C(=O)[C@@H]1C=C2c3cccc4[nH]cc(c34)C[C@H]2N(CC)C1
REMARK SMILES IDX 22 1 16 2 21 3 10 4 20 5 25 6 8 7 18 8 11 9 9 10 19 11 15 12
REMARK SMILES IDX 17 13 12 14 14 15 13 16 6 18 7 19 3 20 2 21 1 22 4 23 5 24
REMARK SMILES IDX 23 25 24 26
REMARK H PARENT 16 17
ROOT
ATOM      1  N   UNL     1     126.395 135.380 123.398  1.00  0.00    -0.295 NA
ATOM      2  N   UNL     1     122.157 137.617 127.089  1.00  0.00    -0.361 N 
ATOM      3  C   UNL     1     125.344 135.619 124.433  1.00  0.00     0.091 C 
ATOM      4  C   UNL     1     124.238 134.522 124.426  1.00  0.00    -0.026 C 
ATOM      5  C   UNL     1     124.718 137.069 124.466  1.00  0.00     0.061 C 
ATOM      6  C   UNL     1     125.789 134.967 122.123  1.00  0.00     0.102 C 
ATOM      7  C   UNL     1     125.088 133.600 122.275  1.00  0.00     0.116 C 
ATOM      8  C   UNL     1     123.656 137.137 125.518  1.00  0.00    -0.020 A 
ATOM      9  C   UNL     1     123.225 134.628 125.496  1.00  0.00    -0.011 A 
ATOM     10  C   UNL     1     124.138 133.599 123.452  1.00  0.00    -0.007 C 
ATOM     11  C   UNL     1     123.021 135.944 125.937  1.00  0.00     0.010 A 
ATOM     12  C   UNL     1     122.093 136.250 126.917  1.00  0.00     0.046 A 
ATOM     13  C   UNL     1     123.103 138.165 126.246  1.00  0.00     0.087 A 
ATOM     14  C   UNL     1     122.452 133.621 126.080  1.00  0.00     0.009 A 
ATOM     15  C   UNL     1     121.314 135.257 127.517  1.00  0.00     0.027 A 
ATOM     16  C   UNL     1     121.516 133.937 127.077  1.00  0.00     0.003 A 
ATOM     17  H   UNL     1     121.587 138.139 127.740  1.00  0.00     0.166 HD
ENDROOT
BRANCH   7  18
ATOM     18  C   UNL     1     124.355 133.286 120.956  1.00  0.00     0.230 C 
ATOM     19  O   UNL     1     123.121 133.301 120.902  1.00  0.00    -0.274 OA
ATOM     20  N   UNL     1     125.128 133.028 119.809  1.00  0.00    -0.343 N 
BRANCH  20  21
ATOM     21  C   UNL     1     126.557 132.684 119.877  1.00  0.00     0.116 C 
ATOM     22  C   UNL     1     127.497 133.656 119.180  1.00  0.00     0.027 C 
ENDBRANCH  20  21
BRANCH  20  23
ATOM     23  C   UNL     1     124.378 132.631 118.609  1.00  0.00     0.116 C 
ATOM     24  C   UNL     1     125.009 131.447 117.891  1.00  0.00     0.027 C 
ENDBRANCH  20  23
ENDBRANCH   7  18
BRANCH   1  25
ATOM     25  C   UNL     1     127.334 136.497 123.266  1.00  0.00     0.082 C 
ATOM     26  C   UNL     1     128.145 136.429 121.975  1.00  0.00     0.021 C 
ENDBRANCH   1  25
TORSDOF 4
ENDMDL
MODEL 12
REMARK VINA RESULT:    -7.259      2.856      5.001
REMARK INTER + INTRA:          -9.618
REMARK INTER:                  -9.008
REMARK INTRA:                  -0.610
REMARK UNBOUND:                -0.661
REMARK SMILES CCN(CC)C(=O)[C@@H]1C=C2c3cccc4[nH]cc(c34)C[C@H]2N(CC)C1
REMARK SMILES IDX 22 1 16 2 21 3 10 4 20 5 25 6 8 7 18 8 11 9 9 10 19 11 15 12
REMARK SMILES IDX 17 13 12 14 14 15 13 16 6 18 7 19 3 20 2 21 1 22 4 23 5 24
REMARK SMILES IDX 23 25 24 26
REMARK H PARENT 16 17
ROOT
ATOM      1  N   UNL     1     127.429 136.832 118.545  1.00  0.00    -0.295 NA
ATOM      2  N   UNL     1     123.420 132.558 120.039  1.00  0.00    -0.361 N 
ATOM      3  C   UNL     1     126.392 135.970 119.186  1.00  0.00     0.091 C 
ATOM      4  C   UNL     1     126.677 135.713 120.696  1.00  0.00    -0.026 C 
ATOM      5  C   UNL     1     126.038 134.628 118.430  1.00  0.00     0.061 C 
ATOM      6  C   UNL     1     128.780 136.432 118.972  1.00  0.00     0.102 C 
ATOM      7  C   UNL     1     128.963 136.677 120.485  1.00  0.00     0.116 C 
ATOM      8  C   UNL     1     125.023 133.858 119.214  1.00  0.00    -0.020 A 
ATOM      9  C   UNL     1     125.634 134.962 121.426  1.00  0.00    -0.011 A 
ATOM     10  C   UNL     1     127.840 136.052 121.282  1.00  0.00    -0.007 C 
ATOM     11  C   UNL     1     124.906 134.087 120.605  1.00  0.00     0.010 A 
ATOM     12  C   UNL     1     123.904 133.279 121.111  1.00  0.00     0.046 A 
ATOM     13  C   UNL     1     124.091 132.902 118.883  1.00  0.00     0.087 A 
ATOM     14  C   UNL     1     125.317 134.992 122.786  1.00  0.00     0.009 A 
ATOM     15  C   UNL     1     123.567 133.297 122.466  1.00  0.00     0.027 A 
ATOM     16  C   UNL     1     124.296 134.173 123.291  1.00  0.00     0.003 A 
ATOM     17  H   UNL     1     122.679 131.873 120.098  1.00  0.00     0.166 HD
ENDROOT
BRANCH   7  18
ATOM     18  C   UNL     1     130.335 136.111 120.901  1.00  0.00     0.230 C 
ATOM     19  O   UNL     1     130.527 134.892 120.944  1.00  0.00    -0.274 OA
ATOM     20  N   UNL     1     131.372 137.019 121.185  1.00  0.00    -0.343 N 
BRANCH  20  21
ATOM     21  C   UNL     1     131.125 138.443 121.462  1.00  0.00     0.116 C 
ATOM     22  C   UNL     1     130.660 138.763 122.876  1.00  0.00     0.027 C 
ENDBRANCH  20  21
BRANCH  20  23
ATOM     23  C   UNL     1     132.623 136.426 121.678  1.00  0.00     0.116 C 
ATOM     24  C   UNL     1     133.620 136.154 120.561  1.00  0.00     0.027 C 
ENDBRANCH  20  23
ENDBRANCH   7  18
BRANCH   1  25
ATOM     25  C   UNL     1     127.279 136.926 117.090  1.00  0.00     0.082 C 
ATOM     26  C   UNL     1     127.057 138.359 116.617  1.00  0.00     0.021 C 
ENDBRANCH   1  25
TORSDOF 4
ENDMDL
MODEL 13
REMARK VINA RESULT:    -7.222      2.571      7.194
REMARK INTER + INTRA:          -9.572
REMARK INTER:                  -9.925
REMARK INTRA:                   0.353
REMARK UNBOUND:                -0.661
REMARK SMILES CCN(CC)C(=O)[C@@H]1C=C2c3cccc4[nH]cc(c34)C[C@H]2N(CC)C1
REMARK SMILES IDX 22 1 16 2 21 3 10 4 20 5 25 6 8 7 18 8 11 9 9 10 19 11 15 12
REMARK SMILES IDX 17 13 12 14 14 15 13 16 6 18 7 19 3 20 2 21 1 22 4 23 5 24
REMARK SMILES IDX 23 25 24 26
REMARK H PARENT 16 17
ROOT
ATOM      1  N   UNL     1     126.814 135.960 123.681  1.00  0.00    -0.295 NA
ATOM      2  N   UNL     1     122.134 137.601 127.143  1.00  0.00    -0.361 N 
ATOM      3  C   UNL     1     125.646 136.036 124.610  1.00  0.00     0.091 C 
ATOM      4  C   UNL     1     124.573 134.948 124.312  1.00  0.00    -0.026 C 
ATOM      5  C   UNL     1     124.989 137.462 124.784  1.00  0.00     0.061 C 
ATOM      6  C   UNL     1     126.367 135.739 122.296  1.00  0.00     0.102 C 
ATOM      7  C   UNL     1     125.682 134.362 122.162  1.00  0.00     0.116 C 
ATOM      8  C   UNL     1     123.813 137.368 125.704  1.00  0.00    -0.020 A 
ATOM      9  C   UNL     1     123.442 134.888 125.261  1.00  0.00    -0.011 A 
ATOM     10  C   UNL     1     124.605 134.181 123.207  1.00  0.00    -0.007 C 
ATOM     11  C   UNL     1     123.160 136.123 125.865  1.00  0.00     0.010 A 
ATOM     12  C   UNL     1     122.120 136.275 126.764  1.00  0.00     0.046 A 
ATOM     13  C   UNL     1     123.158 138.273 126.507  1.00  0.00     0.087 A 
ATOM     14  C   UNL     1     122.629 133.802 125.595  1.00  0.00     0.009 A 
ATOM     15  C   UNL     1     121.299 135.201 127.116  1.00  0.00     0.027 A 
ATOM     16  C   UNL     1     121.578 133.961 126.512  1.00  0.00     0.003 A 
ATOM     17  H   UNL     1     121.482 138.017 127.793  1.00  0.00     0.166 HD
ENDROOT
BRANCH   7  18
ATOM     18  C   UNL     1     125.112 134.245 120.734  1.00  0.00     0.230 C 
ATOM     19  O   UNL     1     125.480 135.018 119.845  1.00  0.00    -0.274 OA
ATOM     20  N   UNL     1     124.199 133.209 120.464  1.00  0.00    -0.343 N 
BRANCH  20  21
ATOM     21  C   UNL     1     123.492 132.477 121.528  1.00  0.00     0.116 C 
ATOM     22  C   UNL     1     121.999 132.753 121.629  1.00  0.00     0.027 C 
ENDBRANCH  20  21
BRANCH  20  23
ATOM     23  C   UNL     1     123.610 133.213 119.118  1.00  0.00     0.116 C 
ATOM     24  C   UNL     1     124.103 132.055 118.262  1.00  0.00     0.027 C 
ENDBRANCH  20  23
ENDBRANCH   7  18
BRANCH   1  25
ATOM     25  C   UNL     1     127.737 137.088 123.825  1.00  0.00     0.082 C 
ATOM     26  C   UNL     1     128.565 137.331 122.566  1.00  0.00     0.021 C 
ENDBRANCH   1  25
TORSDOF 4
ENDMDL
MODEL 14
REMARK VINA RESULT:    -7.203      2.548      7.787
REMARK INTER + INTRA:          -9.548
REMARK INTER:                  -8.941
REMARK INTRA:                  -0.607
REMARK UNBOUND:                -0.661
REMARK SMILES CCN(CC)C(=O)[C@@H]1C=C2c3cccc4[nH]cc(c34)C[C@H]2N(CC)C1
REMARK SMILES IDX 22 1 16 2 21 3 10 4 20 5 25 6 8 7 18 8 11 9 9 10 19 11 15 12
REMARK SMILES IDX 17 13 12 14 14 15 13 16 6 18 7 19 3 20 2 21 1 22 4 23 5 24
REMARK SMILES IDX 23 25 24 26
REMARK H PARENT 16 17
ROOT
ATOM      1  N   UNL     1     123.371 133.746 122.355  1.00  0.00    -0.295 NA
ATOM      2  N   UNL     1     121.836 135.783 127.839  1.00  0.00    -0.361 N 
ATOM      3  C   UNL     1     123.031 134.552 123.566  1.00  0.00     0.091 C 
ATOM      4  C   UNL     1     124.057 135.693 123.832  1.00  0.00    -0.026 C 
ATOM      5  C   UNL     1     122.726 133.733 124.883  1.00  0.00     0.061 C 
ATOM      6  C   UNL     1     124.812 133.454 122.308  1.00  0.00     0.102 C 
ATOM      7  C   UNL     1     125.623 134.757 122.138  1.00  0.00     0.116 C 
ATOM      8  C   UNL     1     122.449 134.675 126.011  1.00  0.00    -0.020 A 
ATOM      9  C   UNL     1     123.726 136.604 124.947  1.00  0.00    -0.011 A 
ATOM     10  C   UNL     1     125.224 135.789 123.168  1.00  0.00    -0.007 C 
ATOM     11  C   UNL     1     122.953 135.996 125.948  1.00  0.00     0.010 A 
ATOM     12  C   UNL     1     122.565 136.680 127.086  1.00  0.00     0.046 A 
ATOM     13  C   UNL     1     121.759 134.564 127.196  1.00  0.00     0.087 A 
ATOM     14  C   UNL     1     124.100 137.937 125.137  1.00  0.00     0.009 A 
ATOM     15  C   UNL     1     122.923 138.014 127.292  1.00  0.00     0.027 A 
ATOM     16  C   UNL     1     123.698 138.627 126.291  1.00  0.00     0.003 A 
ATOM     17  H   UNL     1     121.422 135.993 128.736  1.00  0.00     0.166 HD
ENDROOT
BRANCH   7  18
ATOM     18  C   UNL     1     127.121 134.408 122.238  1.00  0.00     0.230 C 
ATOM     19  O   UNL     1     127.576 133.872 123.253  1.00  0.00    -0.274 OA
ATOM     20  N   UNL     1     127.943 134.673 121.127  1.00  0.00    -0.343 N 
BRANCH  20  21
ATOM     21  C   UNL     1     127.539 135.582 120.042  1.00  0.00     0.116 C 
ATOM     22  C   UNL     1     127.056 134.904 118.768  1.00  0.00     0.027 C 
ENDBRANCH  20  21
BRANCH  20  23
ATOM     23  C   UNL     1     129.377 134.418 121.318  1.00  0.00     0.116 C 
ATOM     24  C   UNL     1     130.251 135.458 120.632  1.00  0.00     0.027 C 
ENDBRANCH  20  23
ENDBRANCH   7  18
BRANCH   1  25
ATOM     25  C   UNL     1     122.527 132.559 122.201  1.00  0.00     0.082 C 
ATOM     26  C   UNL     1     121.068 132.910 121.924  1.00  0.00     0.021 C 
ENDBRANCH   1  25
TORSDOF 4
ENDMDL
MODEL 15
REMARK VINA RESULT:    -7.199      2.372      4.669
REMARK INTER + INTRA:          -9.543
REMARK INTER:                  -9.116
REMARK INTRA:                  -0.426
REMARK UNBOUND:                -0.661
REMARK SMILES CCN(CC)C(=O)[C@@H]1C=C2c3cccc4[nH]cc(c34)C[C@H]2N(CC)C1
REMARK SMILES IDX 22 1 16 2 21 3 10 4 20 5 25 6 8 7 18 8 11 9 9 10 19 11 15 12
REMARK SMILES IDX 17 13 12 14 14 15 13 16 6 18 7 19 3 20 2 21 1 22 4 23 5 24
REMARK SMILES IDX 23 25 24 26
REMARK H PARENT 16 17
ROOT
ATOM      1  N   UNL     1     125.116 133.575 122.269  1.00  0.00    -0.295 NA
ATOM      2  N   UNL     1     128.277 136.450 117.989  1.00  0.00    -0.361 N 
ATOM      3  C   UNL     1     126.150 134.257 121.433  1.00  0.00     0.091 C 
ATOM      4  C   UNL     1     126.949 135.329 122.230  1.00  0.00    -0.026 C 
ATOM      5  C   UNL     1     125.658 134.819 120.041  1.00  0.00     0.061 C 
ATOM      6  C   UNL     1     124.395 134.547 123.106  1.00  0.00     0.102 C 
ATOM      7  C   UNL     1     125.351 135.191 124.133  1.00  0.00     0.116 C 
ATOM      8  C   UNL     1     126.789 135.508 119.346  1.00  0.00    -0.020 A 
ATOM      9  C   UNL     1     128.066 135.966 121.501  1.00  0.00    -0.011 A 
ATOM     10  C   UNL     1     126.590 135.737 123.461  1.00  0.00    -0.007 C 
ATOM     11  C   UNL     1     127.870 136.005 120.112  1.00  0.00     0.010 A 
ATOM     12  C   UNL     1     128.793 136.585 119.261  1.00  0.00     0.046 A 
ATOM     13  C   UNL     1     127.062 135.797 118.029  1.00  0.00     0.087 A 
ATOM     14  C   UNL     1     129.235 136.541 122.007  1.00  0.00     0.009 A 
ATOM     15  C   UNL     1     129.971 137.161 119.746  1.00  0.00     0.027 A 
ATOM     16  C   UNL     1     130.170 137.123 121.138  1.00  0.00     0.003 A 
ATOM     17  H   UNL     1     128.728 136.785 117.149  1.00  0.00     0.166 HD
ENDROOT
BRANCH   7  18
ATOM     18  C   UNL     1     124.580 136.296 124.881  1.00  0.00     0.230 C 
ATOM     19  O   UNL     1     124.829 137.488 124.675  1.00  0.00    -0.274 OA
ATOM     20  N   UNL     1     123.557 135.912 125.768  1.00  0.00    -0.343 N 
BRANCH  20  21
ATOM     21  C   UNL     1     123.434 134.541 126.289  1.00  0.00     0.116 C 
ATOM     22  C   UNL     1     122.071 133.890 126.098  1.00  0.00     0.027 C 
ENDBRANCH  20  21
BRANCH  20  23
ATOM     23  C   UNL     1     122.931 137.000 126.530  1.00  0.00     0.116 C 
ATOM     24  C   UNL     1     121.665 137.524 125.868  1.00  0.00     0.027 C 
ENDBRANCH  20  23
ENDBRANCH   7  18
BRANCH   1  25
ATOM     25  C   UNL     1     124.232 132.703 121.491  1.00  0.00     0.082 C 
ATOM     26  C   UNL     1     124.930 131.427 121.028  1.00  0.00     0.021 C 
ENDBRANCH   1  25
TORSDOF 4
ENDMDL
MODEL 16
REMARK VINA RESULT:    -7.048      1.935      4.868
REMARK INTER + INTRA:          -9.357
REMARK INTER:                  -9.654
REMARK INTRA:                   0.297
REMARK UNBOUND:                -0.661
REMARK SMILES CCN(CC)C(=O)[C@@H]1C=C2c3cccc4[nH]cc(c34)C[C@H]2N(CC)C1
REMARK SMILES IDX 22 1 16 2 21 3 10 4 20 5 25 6 8 7 18 8 11 9 9 10 19 11 15 12
REMARK SMILES IDX 17 13 12 14 14 15 13 16 6 18 7 19 3 20 2 21 1 22 4 23 5 24
REMARK SMILES IDX 23 25 24 26
REMARK H PARENT 16 17
ROOT
ATOM      1  N   UNL     1     126.836 134.047 123.448  1.00  0.00    -0.295 NA
ATOM      2  N   UNL     1     123.697 132.047 118.681  1.00  0.00    -0.361 N 
ATOM      3  C   UNL     1     126.359 133.425 122.176  1.00  0.00     0.091 C 
ATOM      4  C   UNL     1     127.285 133.750 120.967  1.00  0.00    -0.026 C 
ATOM      5  C   UNL     1     124.838 133.659 121.817  1.00  0.00     0.061 C 
ATOM      6  C   UNL     1     127.276 135.433 123.220  1.00  0.00     0.102 C 
ATOM      7  C   UNL     1     128.511 135.463 122.294  1.00  0.00     0.116 C 
ATOM      8  C   UNL     1     124.524 133.017 120.503  1.00  0.00    -0.020 A 
ATOM      9  C   UNL     1     126.939 133.076 119.698  1.00  0.00    -0.011 A 
ATOM     10  C   UNL     1     128.270 134.664 121.033  1.00  0.00    -0.007 C 
ATOM     11  C   UNL     1     125.573 132.781 119.582  1.00  0.00     0.010 A 
ATOM     12  C   UNL     1     125.051 132.174 118.454  1.00  0.00     0.046 A 
ATOM     13  C   UNL     1     123.367 132.554 119.922  1.00  0.00     0.087 A 
ATOM     14  C   UNL     1     127.769 132.738 118.626  1.00  0.00     0.009 A 
ATOM     15  C   UNL     1     125.864 131.822 117.373  1.00  0.00     0.027 A 
ATOM     16  C   UNL     1     127.235 132.117 117.487  1.00  0.00     0.003 A 
ATOM     17  H   UNL     1     123.042 131.641 118.028  1.00  0.00     0.166 HD
ENDROOT
BRANCH   7  18
ATOM     18  C   UNL     1     128.838 136.936 121.977  1.00  0.00     0.230 C 
ATOM     19  O   UNL     1     128.315 137.850 122.622  1.00  0.00    -0.274 OA
ATOM     20  N   UNL     1     129.780 137.207 120.967  1.00  0.00    -0.343 N 
BRANCH  20  21
ATOM     21  C   UNL     1     130.183 136.203 119.969  1.00  0.00     0.116 C 
ATOM     22  C   UNL     1     131.669 135.873 119.938  1.00  0.00     0.027 C 
ENDBRANCH  20  21
BRANCH  20  23
ATOM     23  C   UNL     1     129.972 138.625 120.637  1.00  0.00     0.116 C 
ATOM     24  C   UNL     1     131.107 139.260 121.427  1.00  0.00     0.027 C 
ENDBRANCH  20  23
ENDBRANCH   7  18
BRANCH   1  25
ATOM     25  C   UNL     1     125.880 133.910 124.549  1.00  0.00     0.082 C 
ATOM     26  C   UNL     1     126.248 134.771 125.754  1.00  0.00     0.021 C 
ENDBRANCH   1  25
TORSDOF 4
ENDMDL
MODEL 17
REMARK VINA RESULT:    -7.006      2.976      5.200
REMARK INTER + INTRA:          -9.305
REMARK INTER:                  -9.691
REMARK INTRA:                   0.386
REMARK UNBOUND:                -0.661
REMARK SMILES CCN(CC)C(=O)[C@@H]1C=C2c3cccc4[nH]cc(c34)C[C@H]2N(CC)C1
REMARK SMILES IDX 22 1 16 2 21 3 10 4 20 5 25 6 8 7 18 8 11 9 9 10 19 11 15 12
REMARK SMILES IDX 17 13 12 14 14 15 13 16 6 18 7 19 3 20 2 21 1 22 4 23 5 24
REMARK SMILES IDX 23 25 24 26
REMARK H PARENT 16 17
ROOT
ATOM      1  N   UNL     1     127.783 137.093 118.414  1.00  0.00    -0.295 NA
ATOM      2  N   UNL     1     125.820 131.449 119.349  1.00  0.00    -0.361 N 
ATOM      3  C   UNL     1     127.173 135.830 118.930  1.00  0.00     0.091 C 
ATOM      4  C   UNL     1     127.514 135.568 120.426  1.00  0.00    -0.026 C 
ATOM      5  C   UNL     1     127.403 134.537 118.051  1.00  0.00     0.061 C 
ATOM      6  C   UNL     1     129.173 137.229 118.878  1.00  0.00     0.102 C 
ATOM      7  C   UNL     1     129.219 137.383 120.413  1.00  0.00     0.116 C 
ATOM      8  C   UNL     1     126.774 133.355 118.716  1.00  0.00    -0.020 A 
ATOM      9  C   UNL     1     126.853 134.397 121.038  1.00  0.00    -0.011 A 
ATOM     10  C   UNL     1     128.432 136.288 121.097  1.00  0.00    -0.007 C 
ATOM     11  C   UNL     1     126.553 133.385 120.113  1.00  0.00     0.010 A 
ATOM     12  C   UNL     1     125.955 132.199 120.499  1.00  0.00     0.046 A 
ATOM     13  C   UNL     1     126.312 132.141 118.261  1.00  0.00     0.087 A 
ATOM     14  C   UNL     1     126.529 134.168 122.378  1.00  0.00     0.009 A 
ATOM     15  C   UNL     1     125.619 131.952 121.833  1.00  0.00     0.027 A 
ATOM     16  C   UNL     1     125.918 132.965 122.762  1.00  0.00     0.003 A 
ATOM     17  H   UNL     1     125.418 130.523 119.314  1.00  0.00     0.166 HD
ENDROOT
BRANCH   7  18
ATOM     18  C   UNL     1     130.696 137.378 120.854  1.00  0.00     0.230 C 
ATOM     19  O   UNL     1     131.124 138.236 121.631  1.00  0.00    -0.274 OA
ATOM     20  N   UNL     1     131.529 136.347 120.382  1.00  0.00    -0.343 N 
BRANCH  20  21
ATOM     21  C   UNL     1     131.173 135.506 119.228  1.00  0.00     0.116 C 
ATOM     22  C   UNL     1     130.589 134.142 119.569  1.00  0.00     0.027 C 
ENDBRANCH  20  21
BRANCH  20  23
ATOM     23  C   UNL     1     132.947 136.454 120.748  1.00  0.00     0.116 C 
ATOM     24  C   UNL     1     133.874 135.997 119.631  1.00  0.00     0.027 C 
ENDBRANCH  20  23
ENDBRANCH   7  18
BRANCH   1  25
ATOM     25  C   UNL     1     127.630 137.255 116.966  1.00  0.00     0.082 C 
ATOM     26  C   UNL     1     126.941 138.565 116.595  1.00  0.00     0.021 C 
ENDBRANCH   1  25
TORSDOF 4
ENDMDL
MODEL 18
REMARK VINA RESULT:    -6.799      2.163      6.520
REMARK INTER + INTRA:          -9.049
REMARK INTER:                  -9.492
REMARK INTRA:                   0.443
REMARK UNBOUND:                -0.661
REMARK SMILES CCN(CC)C(=O)[C@@H]1C=C2c3cccc4[nH]cc(c34)C[C@H]2N(CC)C1
REMARK SMILES IDX 22 1 16 2 21 3 10 4 20 5 25 6 8 7 18 8 11 9 9 10 19 11 15 12
REMARK SMILES IDX 17 13 12 14 14 15 13 16 6 18 7 19 3 20 2 21 1 22 4 23 5 24
REMARK SMILES IDX 23 25 24 26
REMARK H PARENT 16 17
ROOT
ATOM      1  N   UNL     1     126.429 133.558 120.313  1.00  0.00    -0.295 NA
ATOM      2  N   UNL     1     125.726 133.626 126.320  1.00  0.00    -0.361 N 
ATOM      3  C   UNL     1     126.189 133.902 121.747  1.00  0.00     0.091 C 
ATOM      4  C   UNL     1     126.949 135.188 122.189  1.00  0.00    -0.026 C 
ATOM      5  C   UNL     1     126.389 132.728 122.786  1.00  0.00     0.061 C 
ATOM      6  C   UNL     1     127.851 133.719 119.967  1.00  0.00     0.102 C 
ATOM      7  C   UNL     1     128.271 135.200 120.080  1.00  0.00     0.116 C 
ATOM      8  C   UNL     1     126.157 133.237 124.174  1.00  0.00    -0.020 A 
ATOM      9  C   UNL     1     126.671 135.655 123.563  1.00  0.00    -0.011 A 
ATOM     10  C   UNL     1     127.881 135.780 121.420  1.00  0.00    -0.007 C 
ATOM     11  C   UNL     1     126.308 134.619 124.437  1.00  0.00     0.010 A 
ATOM     12  C   UNL     1     126.034 134.854 125.772  1.00  0.00     0.046 A 
ATOM     13  C   UNL     1     125.797 132.638 125.358  1.00  0.00     0.087 A 
ATOM     14  C   UNL     1     126.751 136.947 124.087  1.00  0.00     0.009 A 
ATOM     15  C   UNL     1     126.104 136.139 126.315  1.00  0.00     0.027 A 
ATOM     16  C   UNL     1     126.467 137.180 125.442  1.00  0.00     0.003 A 
ATOM     17  H   UNL     1     125.485 133.475 127.289  1.00  0.00     0.166 HD
ENDROOT
BRANCH   7  18
ATOM     18  C   UNL     1     129.793 135.287 119.847  1.00  0.00     0.230 C 
ATOM     19  O   UNL     1     130.386 134.399 119.228  1.00  0.00    -0.274 OA
ATOM     20  N   UNL     1     130.475 136.424 120.317  1.00  0.00    -0.343 N 
BRANCH  20  21
ATOM     21  C   UNL     1     129.899 137.336 121.318  1.00  0.00     0.116 C 
ATOM     22  C   UNL     1     129.841 138.801 120.910  1.00  0.00     0.027 C 
ENDBRANCH  20  21
BRANCH  20  23
ATOM     23  C   UNL     1     131.936 136.402 120.161  1.00  0.00     0.116 C 
ATOM     24  C   UNL     1     132.666 136.447 121.495  1.00  0.00     0.027 C 
ENDBRANCH  20  23
ENDBRANCH   7  18
BRANCH   1  25
ATOM     25  C   UNL     1     125.878 132.255 119.935  1.00  0.00     0.082 C 
ATOM     26  C   UNL     1     126.364 131.790 118.565  1.00  0.00     0.021 C 
ENDBRANCH   1  25
TORSDOF 4
ENDMDL
MODEL 19
REMARK VINA RESULT:    -6.768      5.965     11.551
REMARK INTER + INTRA:          -9.011
REMARK INTER:                  -8.610
REMARK INTRA:                  -0.401
REMARK UNBOUND:                -0.661
REMARK SMILES CCN(CC)C(=O)[C@@H]1C=C2c3cccc4[nH]cc(c34)C[C@H]2N(CC)C1
REMARK SMILES IDX 22 1 16 2 21 3 10 4 20 5 25 6 8 7 18 8 11 9 9 10 19 11 15 12
REMARK SMILES IDX 17 13 12 14 14 15 13 16 6 18 7 19 3 20 2 21 1 22 4 23 5 24
REMARK SMILES IDX 23 25 24 26
REMARK H PARENT 16 17
ROOT
ATOM      1  N   UNL     1     125.445 143.374 125.320  1.00  0.00    -0.295 NA
ATOM      2  N   UNL     1     127.307 145.306 130.740  1.00  0.00    -0.361 N 
ATOM      3  C   UNL     1     126.185 143.681 126.581  1.00  0.00     0.091 C 
ATOM      4  C   UNL     1     126.836 142.416 127.215  1.00  0.00    -0.026 C 
ATOM      5  C   UNL     1     125.401 144.529 127.659  1.00  0.00     0.061 C 
ATOM      6  C   UNL     1     124.651 142.143 125.466  1.00  0.00     0.102 C 
ATOM      7  C   UNL     1     125.576 140.924 125.671  1.00  0.00     0.116 C 
ATOM      8  C   UNL     1     126.253 144.714 128.874  1.00  0.00    -0.020 A 
ATOM      9  C   UNL     1     127.680 142.659 128.403  1.00  0.00    -0.011 A 
ATOM     10  C   UNL     1     126.567 141.169 126.786  1.00  0.00    -0.007 C 
ATOM     11  C   UNL     1     127.295 143.793 129.134  1.00  0.00     0.010 A 
ATOM     12  C   UNL     1     127.949 144.170 130.293  1.00  0.00     0.046 A 
ATOM     13  C   UNL     1     126.277 145.645 129.886  1.00  0.00     0.087 A 
ATOM     14  C   UNL     1     128.755 141.909 128.888  1.00  0.00     0.009 A 
ATOM     15  C   UNL     1     129.029 143.437 130.792  1.00  0.00     0.027 A 
ATOM     16  C   UNL     1     129.417 142.300 130.062  1.00  0.00     0.003 A 
ATOM     17  H   UNL     1     127.558 145.813 131.577  1.00  0.00     0.166 HD
ENDROOT
BRANCH   7  18
ATOM     18  C   UNL     1     124.693 139.694 125.958  1.00  0.00     0.230 C 
ATOM     19  O   UNL     1     123.584 139.824 126.485  1.00  0.00    -0.274 OA
ATOM     20  N   UNL     1     125.165 138.428 125.564  1.00  0.00    -0.343 N 
BRANCH  20  21
ATOM     21  C   UNL     1     126.578 138.175 125.238  1.00  0.00     0.116 C 
ATOM     22  C   UNL     1     126.845 136.916 124.426  1.00  0.00     0.027 C 
ENDBRANCH  20  21
BRANCH  20  23
ATOM     23  C   UNL     1     124.331 137.284 125.959  1.00  0.00     0.116 C 
ATOM     24  C   UNL     1     123.232 136.988 124.950  1.00  0.00     0.027 C 
ENDBRANCH  20  23
ENDBRANCH   7  18
BRANCH   1  25
ATOM     25  C   UNL     1     124.673 144.512 124.816  1.00  0.00     0.082 C 
ATOM     26  C   UNL     1     123.225 144.145 124.506  1.00  0.00     0.021 C 
ENDBRANCH   1  25
TORSDOF 4
ENDMDL
