MODEL 1
REMARK VINA RESULT:    -8.364      0.000      0.000
REMARK INTER + INTRA:         -10.900
REMARK INTER:                 -10.320
REMARK INTRA:                  -0.580
REMARK UNBOUND:                -0.580
REMARK SMILES CCN(CC)C(=O)[C@@H]1C=C2c3cccc4[nH]cc(c34)C[C@H]2N(CC)C1
REMARK SMILES IDX 22 1 16 2 21 3 10 4 20 5 25 6 8 7 18 8 11 9 9 10 19 11 15 12
REMARK SMILES IDX 17 13 12 14 14 15 13 16 6 18 7 19 3 20 2 21 1 22 4 23 5 24
REMARK SMILES IDX 23 25 24 26
REMARK H PARENT 16 17
ROOT
ATOM      1  N   UNL     1      93.452 121.035 116.937  1.00  0.00    -0.295 NA
ATOM      2  N   UNL     1      95.257 126.266 114.495  1.00  0.00    -0.361 N 
ATOM      3  C   UNL     1      94.086 122.349 116.613  1.00  0.00     0.091 C 
ATOM      4  C   UNL     1      94.047 123.344 117.811  1.00  0.00    -0.026 C 
ATOM      5  C   UNL     1      93.610 123.039 115.274  1.00  0.00     0.061 C 
ATOM      6  C   UNL     1      92.197 121.230 117.681  1.00  0.00     0.102 C 
ATOM      7  C   UNL     1      92.478 121.868 119.059  1.00  0.00     0.116 C 
ATOM      8  C   UNL     1      94.298 124.358 115.112  1.00  0.00    -0.020 A 
ATOM      9  C   UNL     1      94.756 124.624 117.603  1.00  0.00    -0.011 A 
ATOM     10  C   UNL     1      93.328 123.111 118.924  1.00  0.00    -0.007 C 
ATOM     11  C   UNL     1      94.804 125.018 116.257  1.00  0.00     0.010 A 
ATOM     12  C   UNL     1      95.403 126.201 115.865  1.00  0.00     0.046 A 
ATOM     13  C   UNL     1      94.589 125.152 114.028  1.00  0.00     0.087 A 
ATOM     14  C   UNL     1      95.336 125.473 118.549  1.00  0.00     0.009 A 
ATOM     15  C   UNL     1      95.993 127.062 116.794  1.00  0.00     0.027 A 
ATOM     16  C   UNL     1      95.947 126.670 118.144  1.00  0.00     0.003 A 
ATOM     17  H   UNL     1      95.592 127.025 113.919  1.00  0.00     0.166 HD
ENDROOT
BRANCH   7  18
ATOM     18  C   UNL     1      91.125 122.177 119.730  1.00  0.00     0.230 C 
ATOM     19  O   UNL     1      90.622 123.302 119.643  1.00  0.00    -0.274 OA
ATOM     20  N   UNL     1      90.460 121.135 120.402  1.00  0.00    -0.343 N 
BRANCH  20  21
ATOM     21  C   UNL     1      91.140 119.894 120.808  1.00  0.00     0.116 C 
ATOM     22  C   UNL     1      90.239 118.677 120.965  1.00  0.00     0.027 C 
ENDBRANCH  20  21
BRANCH  20  23
ATOM     23  C   UNL     1      89.231 121.514 121.111  1.00  0.00     0.116 C 
ATOM     24  C   UNL     1      89.486 121.885 122.564  1.00  0.00     0.027 C 
ENDBRANCH  20  23
ENDBRANCH   7  18
BRANCH   1  25
ATOM     25  C   UNL     1      93.312 120.162 115.770  1.00  0.00     0.082 C 
ATOM     26  C   UNL     1      91.853 119.887 115.418  1.00  0.00     0.021 C 
ENDBRANCH   1  25
TORSDOF 4
ENDMDL
MODEL 2
REMARK VINA RESULT:    -8.310      3.837      6.119
REMARK INTER + INTRA:         -10.833
REMARK INTER:                 -10.137
REMARK INTRA:                  -0.696
REMARK UNBOUND:                -0.580
REMARK SMILES CCN(CC)C(=O)[C@@H]1C=C2c3cccc4[nH]cc(c34)C[C@H]2N(CC)C1
REMARK SMILES IDX 22 1 16 2 21 3 10 4 20 5 25 6 8 7 18 8 11 9 9 10 19 11 15 12
REMARK SMILES IDX 17 13 12 14 14 15 13 16 6 18 7 19 3 20 2 21 1 22 4 23 5 24
REMARK SMILES IDX 23 25 24 26
REMARK H PARENT 16 17
ROOT
ATOM      1  N   UNL     1      89.076 121.099 121.836  1.00  0.00    -0.295 NA
ATOM      2  N   UNL     1      92.253 118.973 117.149  1.00  0.00    -0.361 N 
ATOM      3  C   UNL     1      90.126 120.649 120.873  1.00  0.00     0.091 C 
ATOM      4  C   UNL     1      91.268 121.695 120.701  1.00  0.00    -0.026 C 
ATOM      5  C   UNL     1      89.609 120.126 119.475  1.00  0.00     0.061 C 
ATOM      6  C   UNL     1      88.740 122.515 121.619  1.00  0.00     0.102 C 
ATOM      7  C   UNL     1      89.955 123.415 121.933  1.00  0.00     0.116 C 
ATOM      8  C   UNL     1      90.772 119.757 118.610  1.00  0.00    -0.020 A 
ATOM      9  C   UNL     1      92.400 121.272 119.851  1.00  0.00    -0.011 A 
ATOM     10  C   UNL     1      91.189 122.942 121.199  1.00  0.00    -0.007 C 
ATOM     11  C   UNL     1      92.036 120.340 118.868  1.00  0.00     0.010 A 
ATOM     12  C   UNL     1      92.952 119.844 117.958  1.00  0.00     0.046 A 
ATOM     13  C   UNL     1      90.930 118.911 117.537  1.00  0.00     0.087 A 
ATOM     14  C   UNL     1      93.732 121.693 119.884  1.00  0.00     0.009 A 
ATOM     15  C   UNL     1      94.290 120.248 117.977  1.00  0.00     0.027 A 
ATOM     16  C   UNL     1      94.658 121.183 118.962  1.00  0.00     0.003 A 
ATOM     17  H   UNL     1      92.657 118.456 116.381  1.00  0.00     0.166 HD
ENDROOT
BRANCH   7  18
ATOM     18  C   UNL     1      89.590 124.864 121.554  1.00  0.00     0.230 C 
ATOM     19  O   UNL     1      89.817 125.294 120.419  1.00  0.00    -0.274 OA
ATOM     20  N   UNL     1      88.954 125.665 122.520  1.00  0.00    -0.343 N 
BRANCH  20  21
ATOM     21  C   UNL     1      88.951 125.328 123.952  1.00  0.00     0.116 C 
ATOM     22  C   UNL     1      87.626 124.817 124.500  1.00  0.00     0.027 C 
ENDBRANCH  20  21
BRANCH  20  23
ATOM     23  C   UNL     1      88.728 127.066 122.139  1.00  0.00     0.116 C 
ATOM     24  C   UNL     1      87.300 127.323 121.682  1.00  0.00     0.027 C 
ENDBRANCH  20  23
ENDBRANCH   7  18
BRANCH   1  25
ATOM     25  C   UNL     1      87.908 120.216 121.865  1.00  0.00     0.082 C 
ATOM     26  C   UNL     1      88.124 118.988 122.745  1.00  0.00     0.021 C 
ENDBRANCH   1  25
TORSDOF 4
ENDMDL
MODEL 3
REMARK VINA RESULT:    -8.196      4.044      7.532
REMARK INTER + INTRA:         -10.693
REMARK INTER:                 -10.267
REMARK INTRA:                  -0.426
REMARK UNBOUND:                -0.580
REMARK SMILES CCN(CC)C(=O)[C@@H]1C=C2c3cccc4[nH]cc(c34)C[C@H]2N(CC)C1
REMARK SMILES IDX 22 1 16 2 21 3 10 4 20 5 25 6 8 7 18 8 11 9 9 10 19 11 15 12
REMARK SMILES IDX 17 13 12 14 14 15 13 16 6 18 7 19 3 20 2 21 1 22 4 23 5 24
REMARK SMILES IDX 23 25 24 26
REMARK H PARENT 16 17
ROOT
ATOM      1  N   UNL     1      88.248 119.894 121.368  1.00  0.00    -0.295 NA
ATOM      2  N   UNL     1      88.016 124.991 124.617  1.00  0.00    -0.361 N 
ATOM      3  C   UNL     1      88.217 121.302 121.869  1.00  0.00     0.091 C 
ATOM      4  C   UNL     1      89.341 122.183 121.247  1.00  0.00    -0.026 C 
ATOM      5  C   UNL     1      88.146 121.481 123.437  1.00  0.00     0.061 C 
ATOM      6  C   UNL     1      89.629 119.387 121.321  1.00  0.00     0.102 C 
ATOM      7  C   UNL     1      90.461 120.177 120.288  1.00  0.00     0.116 C 
ATOM      8  C   UNL     1      88.167 122.936 123.782  1.00  0.00    -0.020 A 
ATOM      9  C   UNL     1      89.304 123.615 121.607  1.00  0.00    -0.011 A 
ATOM     10  C   UNL     1      90.346 121.667 120.517  1.00  0.00    -0.007 C 
ATOM     11  C   UNL     1      88.723 123.856 122.861  1.00  0.00     0.010 A 
ATOM     12  C   UNL     1      88.622 125.132 123.386  1.00  0.00     0.046 A 
ATOM     13  C   UNL     1      87.734 123.663 124.866  1.00  0.00     0.087 A 
ATOM     14  C   UNL     1      89.786 124.716 120.894  1.00  0.00     0.009 A 
ATOM     15  C   UNL     1      89.093 126.246 122.687  1.00  0.00     0.027 A 
ATOM     16  C   UNL     1      89.675 126.008 121.429  1.00  0.00     0.003 A 
ATOM     17  H   UNL     1      87.811 125.756 125.244  1.00  0.00     0.166 HD
ENDROOT
BRANCH   7  18
ATOM     18  C   UNL     1      91.923 119.700 120.383  1.00  0.00     0.230 C 
ATOM     19  O   UNL     1      92.318 119.072 121.370  1.00  0.00    -0.274 OA
ATOM     20  N   UNL     1      92.781 119.959 119.297  1.00  0.00    -0.343 N 
BRANCH  20  21
ATOM     21  C   UNL     1      92.469 120.959 118.263  1.00  0.00     0.116 C 
ATOM     22  C   UNL     1      92.348 120.415 116.846  1.00  0.00     0.027 C 
ENDBRANCH  20  21
BRANCH  20  23
ATOM     23  C   UNL     1      94.186 119.577 119.488  1.00  0.00     0.116 C 
ATOM     24  C   UNL     1      95.066 120.758 119.869  1.00  0.00     0.027 C 
ENDBRANCH  20  23
ENDBRANCH   7  18
BRANCH   1  25
ATOM     25  C   UNL     1      87.323 119.011 122.082  1.00  0.00     0.082 C 
ATOM     26  C   UNL     1      87.800 117.562 122.106  1.00  0.00     0.021 C 
ENDBRANCH   1  25
TORSDOF 4
ENDMDL
MODEL 4
REMARK VINA RESULT:    -8.164      2.608      5.396
REMARK INTER + INTRA:         -10.653
REMARK INTER:                 -10.022
REMARK INTRA:                  -0.631
REMARK UNBOUND:                -0.580
REMARK SMILES CCN(CC)C(=O)[C@@H]1C=C2c3cccc4[nH]cc(c34)C[C@H]2N(CC)C1
REMARK SMILES IDX 22 1 16 2 21 3 10 4 20 5 25 6 8 7 18 8 11 9 9 10 19 11 15 12
REMARK SMILES IDX 17 13 12 14 14 15 13 16 6 18 7 19 3 20 2 21 1 22 4 23 5 24
REMARK SMILES IDX 23 25 24 26
REMARK H PARENT 16 17
ROOT
ATOM      1  N   UNL     1      90.673 120.820 121.810  1.00  0.00    -0.295 NA
ATOM      2  N   UNL     1      92.645 120.177 116.128  1.00  0.00    -0.361 N 
ATOM      3  C   UNL     1      91.390 120.890 120.501  1.00  0.00     0.091 C 
ATOM      4  C   UNL     1      91.642 122.354 120.034  1.00  0.00    -0.026 C 
ATOM      5  C   UNL     1      90.793 120.007 119.334  1.00  0.00     0.061 C 
ATOM      6  C   UNL     1      89.574 121.799 121.857  1.00  0.00     0.102 C 
ATOM      7  C   UNL     1      90.129 123.239 121.802  1.00  0.00     0.116 C 
ATOM      8  C   UNL     1      91.588 120.217 118.084  1.00  0.00    -0.020 A 
ATOM      9  C   UNL     1      92.447 122.503 118.804  1.00  0.00    -0.011 A 
ATOM     10  C   UNL     1      91.080 123.416 120.640  1.00  0.00    -0.007 C 
ATOM     11  C   UNL     1      92.331 121.411 117.931  1.00  0.00     0.010 A 
ATOM     12  C   UNL     1      92.989 121.377 116.714  1.00  0.00     0.046 A 
ATOM     13  C   UNL     1      91.796 119.464 116.951  1.00  0.00     0.087 A 
ATOM     14  C   UNL     1      93.253 123.572 118.403  1.00  0.00     0.009 A 
ATOM     15  C   UNL     1      93.804 122.432 116.297  1.00  0.00     0.027 A 
ATOM     16  C   UNL     1      93.922 123.529 117.170  1.00  0.00     0.003 A 
ATOM     17  H   UNL     1      92.969 119.868 115.223  1.00  0.00     0.166 HD
ENDROOT
BRANCH   7  18
ATOM     18  C   UNL     1      88.936 124.211 121.712  1.00  0.00     0.230 C 
ATOM     19  O   UNL     1      87.944 123.928 121.033  1.00  0.00    -0.274 OA
ATOM     20  N   UNL     1      88.990 125.403 122.457  1.00  0.00    -0.343 N 
BRANCH  20  21
ATOM     21  C   UNL     1      90.246 125.935 123.012  1.00  0.00     0.116 C 
ATOM     22  C   UNL     1      90.091 126.840 124.226  1.00  0.00     0.027 C 
ENDBRANCH  20  21
BRANCH  20  23
ATOM     23  C   UNL     1      87.876 126.337 122.249  1.00  0.00     0.116 C 
ATOM     24  C   UNL     1      88.181 127.383 121.186  1.00  0.00     0.027 C 
ENDBRANCH  20  23
ENDBRANCH   7  18
BRANCH   1  25
ATOM     25  C   UNL     1      90.262 119.461 122.168  1.00  0.00     0.082 C 
ATOM     26  C   UNL     1      88.788 119.379 122.556  1.00  0.00     0.021 C 
ENDBRANCH   1  25
TORSDOF 4
ENDMDL
MODEL 5
REMARK VINA RESULT:    -8.107      2.121      4.366
REMARK INTER + INTRA:         -10.582
REMARK INTER:                  -9.982
REMARK INTRA:                  -0.600
REMARK UNBOUND:                -0.580
REMARK SMILES CCN(CC)C(=O)[C@@H]1C=C2c3cccc4[nH]cc(c34)C[C@H]2N(CC)C1
REMARK SMILES IDX 22 1 16 2 21 3 10 4 20 5 25 6 8 7 18 8 11 9 9 10 19 11 15 12
REMARK SMILES IDX 17 13 12 14 14 15 13 16 6 18 7 19 3 20 2 21 1 22 4 23 5 24
REMARK SMILES IDX 23 25 24 26
REMARK H PARENT 16 17
ROOT
ATOM      1  N   UNL     1      91.977 120.651 120.679  1.00  0.00    -0.295 NA
ATOM      2  N   UNL     1      93.279 120.691 114.772  1.00  0.00    -0.361 N 
ATOM      3  C   UNL     1      92.492 120.925 119.303  1.00  0.00     0.091 C 
ATOM      4  C   UNL     1      92.402 122.432 118.920  1.00  0.00    -0.026 C 
ATOM      5  C   UNL     1      91.925 120.002 118.152  1.00  0.00     0.061 C 
ATOM      6  C   UNL     1      90.731 121.392 120.927  1.00  0.00     0.102 C 
ATOM      7  C   UNL     1      90.993 122.914 120.915  1.00  0.00     0.116 C 
ATOM      8  C   UNL     1      92.497 120.425 116.836  1.00  0.00    -0.020 A 
ATOM      9  C   UNL     1      92.998 122.797 117.617  1.00  0.00    -0.011 A 
ATOM     10  C   UNL     1      91.734 123.331 119.664  1.00  0.00    -0.007 C 
ATOM     11  C   UNL     1      92.977 121.748 116.686  1.00  0.00     0.010 A 
ATOM     12  C   UNL     1      93.466 121.904 115.401  1.00  0.00     0.046 A 
ATOM     13  C   UNL     1      92.694 119.786 115.635  1.00  0.00     0.087 A 
ATOM     14  C   UNL     1      93.530 124.021 117.204  1.00  0.00     0.009 A 
ATOM     15  C   UNL     1      94.007 123.118 114.969  1.00  0.00     0.027 A 
ATOM     16  C   UNL     1      94.029 124.171 115.901  1.00  0.00     0.003 A 
ATOM     17  H   UNL     1      93.535 120.497 113.814  1.00  0.00     0.166 HD
ENDROOT
BRANCH   7  18
ATOM     18  C   UNL     1      89.638 123.637 121.038  1.00  0.00     0.230 C 
ATOM     19  O   UNL     1      88.716 123.383 120.257  1.00  0.00    -0.274 OA
ATOM     20  N   UNL     1      89.466 124.557 122.088  1.00  0.00    -0.343 N 
BRANCH  20  21
ATOM     21  C   UNL     1      90.599 125.129 122.834  1.00  0.00     0.116 C 
ATOM     22  C   UNL     1      90.309 126.433 123.563  1.00  0.00     0.027 C 
ENDBRANCH  20  21
BRANCH  20  23
ATOM     23  C   UNL     1      88.195 125.292 122.092  1.00  0.00     0.116 C 
ATOM     24  C   UNL     1      87.209 124.749 123.117  1.00  0.00     0.027 C 
ENDBRANCH  20  23
ENDBRANCH   7  18
BRANCH   1  25
ATOM     25  C   UNL     1      91.879 119.221 120.981  1.00  0.00     0.082 C 
ATOM     26  C   UNL     1      90.437 118.764 121.180  1.00  0.00     0.021 C 
ENDBRANCH   1  25
TORSDOF 4
ENDMDL
MODEL 6
REMARK VINA RESULT:    -8.026      4.281      7.949
REMARK INTER + INTRA:         -10.482
REMARK INTER:                  -9.925
REMARK INTRA:                  -0.557
REMARK UNBOUND:                -0.580
REMARK SMILES CCN(CC)C(=O)[C@@H]1C=C2c3cccc4[nH]cc(c34)C[C@H]2N(CC)C1
REMARK SMILES IDX 22 1 16 2 21 3 10 4 20 5 25 6 8 7 18 8 11 9 9 10 19 11 15 12
REMARK SMILES IDX 17 13 12 14 14 15 13 16 6 18 7 19 3 20 2 21 1 22 4 23 5 24
REMARK SMILES IDX 23 25 24 26
REMARK H PARENT 16 17
ROOT
ATOM      1  N   UNL     1      88.039 120.640 121.445  1.00  0.00    -0.295 NA
ATOM      2  N   UNL     1      87.242 125.172 125.370  1.00  0.00    -0.361 N 
ATOM      3  C   UNL     1      87.790 121.941 122.135  1.00  0.00     0.091 C 
ATOM      4  C   UNL     1      88.592 123.117 121.503  1.00  0.00    -0.026 C 
ATOM      5  C   UNL     1      87.926 121.930 123.709  1.00  0.00     0.061 C 
ATOM      6  C   UNL     1      89.472 120.469 121.152  1.00  0.00     0.102 C 
ATOM      7  C   UNL     1      89.948 121.534 120.141  1.00  0.00     0.116 C 
ATOM      8  C   UNL     1      87.693 123.307 124.246  1.00  0.00    -0.020 A 
ATOM      9  C   UNL     1      88.310 124.456 122.060  1.00  0.00    -0.011 A 
ATOM     10  C   UNL     1      89.559 122.925 120.587  1.00  0.00    -0.007 C 
ATOM     11  C   UNL     1      87.893 124.422 123.399  1.00  0.00     0.010 A 
ATOM     12  C   UNL     1      87.607 125.578 124.103  1.00  0.00     0.046 A 
ATOM     13  C   UNL     1      87.289 123.796 125.467  1.00  0.00     0.087 A 
ATOM     14  C   UNL     1      88.433 125.707 121.450  1.00  0.00     0.009 A 
ATOM     15  C   UNL     1      87.718 126.839 123.511  1.00  0.00     0.027 A 
ATOM     16  C   UNL     1      88.136 126.876 122.168  1.00  0.00     0.003 A 
ATOM     17  H   UNL     1      86.980 125.798 126.118  1.00  0.00     0.166 HD
ENDROOT
BRANCH   7  18
ATOM     18  C   UNL     1      91.476 121.397 119.982  1.00  0.00     0.230 C 
ATOM     19  O   UNL     1      92.243 122.097 120.650  1.00  0.00    -0.274 OA
ATOM     20  N   UNL     1      91.969 120.424 119.093  1.00  0.00    -0.343 N 
BRANCH  20  21
ATOM     21  C   UNL     1      91.130 119.801 118.056  1.00  0.00     0.116 C 
ATOM     22  C   UNL     1      91.850 119.437 116.765  1.00  0.00     0.027 C 
ENDBRANCH  20  21
BRANCH  20  23
ATOM     23  C   UNL     1      93.425 120.412 118.903  1.00  0.00     0.116 C 
ATOM     24  C   UNL     1      94.133 119.485 119.881  1.00  0.00     0.027 C 
ENDBRANCH  20  23
ENDBRANCH   7  18
BRANCH   1  25
ATOM     25  C   UNL     1      87.443 119.497 122.141  1.00  0.00     0.082 C 
ATOM     26  C   UNL     1      88.351 118.271 122.135  1.00  0.00     0.021 C 
ENDBRANCH   1  25
TORSDOF 4
ENDMDL
MODEL 7
REMARK VINA RESULT:    -7.604      2.145      7.211
REMARK INTER + INTRA:          -9.962
REMARK INTER:                  -9.654
REMARK INTRA:                  -0.307
REMARK UNBOUND:                -0.580
REMARK SMILES CCN(CC)C(=O)[C@@H]1C=C2c3cccc4[nH]cc(c34)C[C@H]2N(CC)C1
REMARK SMILES IDX 22 1 16 2 21 3 10 4 20 5 25 6 8 7 18 8 11 9 9 10 19 11 15 12
REMARK SMILES IDX 17 13 12 14 14 15 13 16 6 18 7 19 3 20 2 21 1 22 4 23 5 24
REMARK SMILES IDX 23 25 24 26
REMARK H PARENT 16 17
ROOT
ATOM      1  N   UNL     1      93.862 122.933 118.258  1.00  0.00    -0.295 NA
ATOM      2  N   UNL     1      88.889 122.519 121.676  1.00  0.00    -0.361 N 
ATOM      3  C   UNL     1      92.757 122.525 119.177  1.00  0.00     0.091 C 
ATOM      4  C   UNL     1      92.222 121.095 118.872  1.00  0.00    -0.026 C 
ATOM      5  C   UNL     1      91.574 123.560 119.343  1.00  0.00     0.061 C 
ATOM      6  C   UNL     1      93.556 122.551 116.870  1.00  0.00     0.102 C 
ATOM      7  C   UNL     1      93.493 121.014 116.733  1.00  0.00     0.116 C 
ATOM      8  C   UNL     1      90.530 122.993 120.253  1.00  0.00    -0.020 A 
ATOM      9  C   UNL     1      91.205 120.578 119.812  1.00  0.00    -0.011 A 
ATOM     10  C   UNL     1      92.574 120.409 117.769  1.00  0.00    -0.007 C 
ATOM     11  C   UNL     1      90.440 121.590 120.411  1.00  0.00     0.010 A 
ATOM     12  C   UNL     1      89.421 121.303 121.301  1.00  0.00     0.046 A 
ATOM     13  C   UNL     1      89.556 123.551 121.048  1.00  0.00     0.087 A 
ATOM     14  C   UNL     1      90.903 119.254 120.142  1.00  0.00     0.009 A 
ATOM     15  C   UNL     1      89.105 119.987 121.648  1.00  0.00     0.027 A 
ATOM     16  C   UNL     1      89.871 118.970 121.049  1.00  0.00     0.003 A 
ATOM     17  H   UNL     1      88.119 122.633 122.320  1.00  0.00     0.166 HD
ENDROOT
BRANCH   7  18
ATOM     18  C   UNL     1      93.032 120.678 115.301  1.00  0.00     0.230 C 
ATOM     19  O   UNL     1      91.923 120.174 115.099  1.00  0.00    -0.274 OA
ATOM     20  N   UNL     1      93.888 121.001 114.232  1.00  0.00    -0.343 N 
BRANCH  20  21
ATOM     21  C   UNL     1      95.318 121.295 114.423  1.00  0.00     0.116 C 
ATOM     22  C   UNL     1      95.745 122.714 114.074  1.00  0.00     0.027 C 
ENDBRANCH  20  21
BRANCH  20  23
ATOM     23  C   UNL     1      93.444 120.562 112.903  1.00  0.00     0.116 C 
ATOM     24  C   UNL     1      94.607 120.269 111.966  1.00  0.00     0.027 C 
ENDBRANCH  20  23
ENDBRANCH   7  18
BRANCH   1  25
ATOM     25  C   UNL     1      94.244 124.339 118.408  1.00  0.00     0.082 C 
ATOM     26  C   UNL     1      94.857 124.917 117.136  1.00  0.00     0.021 C 
ENDBRANCH   1  25
TORSDOF 4
ENDMDL
MODEL 8
REMARK VINA RESULT:    -7.583      1.720      6.916
REMARK INTER + INTRA:          -9.935
REMARK INTER:                  -9.423
REMARK INTRA:                  -0.512
REMARK UNBOUND:                -0.580
REMARK SMILES CCN(CC)C(=O)[C@@H]1C=C2c3cccc4[nH]cc(c34)C[C@H]2N(CC)C1
REMARK SMILES IDX 22 1 16 2 21 3 10 4 20 5 25 6 8 7 18 8 11 9 9 10 19 11 15 12
REMARK SMILES IDX 17 13 12 14 14 15 13 16 6 18 7 19 3 20 2 21 1 22 4 23 5 24
REMARK SMILES IDX 23 25 24 26
REMARK H PARENT 16 17
ROOT
ATOM      1  N   UNL     1      92.297 120.924 117.543  1.00  0.00    -0.295 NA
ATOM      2  N   UNL     1      90.261 120.752 123.236  1.00  0.00    -0.361 N 
ATOM      3  C   UNL     1      91.590 121.128 118.843  1.00  0.00     0.091 C 
ATOM      4  C   UNL     1      91.496 122.631 119.242  1.00  0.00    -0.026 C 
ATOM      5  C   UNL     1      92.088 120.241 120.052  1.00  0.00     0.061 C 
ATOM      6  C   UNL     1      93.494 121.776 117.459  1.00  0.00     0.102 C 
ATOM      7  C   UNL     1      93.096 123.268 117.445  1.00  0.00     0.116 C 
ATOM      8  C   UNL     1      91.319 120.590 121.287  1.00  0.00    -0.020 A 
ATOM      9  C   UNL     1      90.710 122.921 120.460  1.00  0.00    -0.011 A 
ATOM     10  C   UNL     1      92.169 123.598 118.593  1.00  0.00    -0.007 C 
ATOM     11  C   UNL     1      90.707 121.863 121.382  1.00  0.00     0.010 A 
ATOM     12  C   UNL     1      90.048 121.954 122.595  1.00  0.00     0.046 A 
ATOM     13  C   UNL     1      91.030 119.916 122.450  1.00  0.00     0.087 A 
ATOM     14  C   UNL     1      90.023 124.086 120.808  1.00  0.00     0.009 A 
ATOM     15  C   UNL     1      89.350 123.108 122.960  1.00  0.00     0.027 A 
ATOM     16  C   UNL     1      89.352 124.171 122.038  1.00  0.00     0.003 A 
ATOM     17  H   UNL     1      89.905 120.521 124.152  1.00  0.00     0.166 HD
ENDROOT
BRANCH   7  18
ATOM     18  C   UNL     1      94.386 124.110 117.499  1.00  0.00     0.230 C 
ATOM     19  O   UNL     1      94.958 124.317 118.574  1.00  0.00    -0.274 OA
ATOM     20  N   UNL     1      94.917 124.594 116.290  1.00  0.00    -0.343 N 
BRANCH  20  21
ATOM     21  C   UNL     1      94.130 124.656 115.047  1.00  0.00     0.116 C 
ATOM     22  C   UNL     1      94.911 125.038 113.798  1.00  0.00     0.027 C 
ENDBRANCH  20  21
BRANCH  20  23
ATOM     23  C   UNL     1      96.085 125.477 116.413  1.00  0.00     0.116 C 
ATOM     24  C   UNL     1      95.700 126.908 116.763  1.00  0.00     0.027 C 
ENDBRANCH  20  23
ENDBRANCH   7  18
BRANCH   1  25
ATOM     25  C   UNL     1      92.560 119.513 117.249  1.00  0.00     0.082 C 
ATOM     26  C   UNL     1      91.313 118.773 116.774  1.00  0.00     0.021 C 
ENDBRANCH   1  25
TORSDOF 4
ENDMDL
MODEL 9
REMARK VINA RESULT:    -7.466      1.584      6.832
REMARK INTER + INTRA:          -9.791
REMARK INTER:                  -9.530
REMARK INTRA:                  -0.262
REMARK UNBOUND:                -0.580
REMARK SMILES CCN(CC)C(=O)[C@@H]1C=C2c3cccc4[nH]cc(c34)C[C@H]2N(CC)C1
REMARK SMILES IDX 22 1 16 2 21 3 10 4 20 5 25 6 8 7 18 8 11 9 9 10 19 11 15 12
REMARK SMILES IDX 17 13 12 14 14 15 13 16 6 18 7 19 3 20 2 21 1 22 4 23 5 24
REMARK SMILES IDX 23 25 24 26
REMARK H PARENT 16 17
ROOT
ATOM      1  N   UNL     1      93.465 121.319 116.512  1.00  0.00    -0.295 NA
ATOM      2  N   UNL     1      91.462 119.355 121.871  1.00  0.00    -0.361 N 
ATOM      3  C   UNL     1      92.705 121.031 117.766  1.00  0.00     0.091 C 
ATOM      4  C   UNL     1      92.168 122.323 118.451  1.00  0.00    -0.026 C 
ATOM      5  C   UNL     1      93.417 120.080 118.807  1.00  0.00     0.061 C 
ATOM      6  C   UNL     1      94.362 122.471 116.698  1.00  0.00     0.102 C 
ATOM      7  C   UNL     1      93.546 123.757 116.954  1.00  0.00     0.116 C 
ATOM      8  C   UNL     1      92.557 119.923 120.021  1.00  0.00    -0.020 A 
ATOM      9  C   UNL     1      91.310 122.110 119.635  1.00  0.00    -0.011 A 
ATOM     10  C   UNL     1      92.542 123.556 118.066  1.00  0.00    -0.007 C 
ATOM     11  C   UNL     1      91.598 120.920 120.321  1.00  0.00     0.010 A 
ATOM     12  C   UNL     1      90.919 120.558 121.470  1.00  0.00     0.046 A 
ATOM     13  C   UNL     1      92.455 118.960 120.998  1.00  0.00     0.087 A 
ATOM     14  C   UNL     1      90.305 122.930 120.153  1.00  0.00     0.009 A 
ATOM     15  C   UNL     1      89.907 121.362 122.002  1.00  0.00     0.027 A 
ATOM     16  C   UNL     1      89.616 122.555 121.316  1.00  0.00     0.003 A 
ATOM     17  H   UNL     1      91.171 118.841 122.690  1.00  0.00     0.166 HD
ENDROOT
BRANCH   7  18
ATOM     18  C   UNL     1      94.533 124.895 117.280  1.00  0.00     0.230 C 
ATOM     19  O   UNL     1      94.815 125.168 118.451  1.00  0.00    -0.274 OA
ATOM     20  N   UNL     1      95.135 125.583 116.210  1.00  0.00    -0.343 N 
BRANCH  20  21
ATOM     21  C   UNL     1      94.609 125.527 114.836  1.00  0.00     0.116 C 
ATOM     22  C   UNL     1      95.540 124.904 113.806  1.00  0.00     0.027 C 
ENDBRANCH  20  21
BRANCH  20  23
ATOM     23  C   UNL     1      95.982 126.725 116.580  1.00  0.00     0.116 C 
ATOM     24  C   UNL     1      97.251 126.300 117.305  1.00  0.00     0.027 C 
ENDBRANCH  20  23
ENDBRANCH   7  18
BRANCH   1  25
ATOM     25  C   UNL     1      94.134 120.138 115.962  1.00  0.00     0.082 C 
ATOM     26  C   UNL     1      94.827 120.426 114.633  1.00  0.00     0.021 C 
ENDBRANCH   1  25
TORSDOF 4
ENDMDL
MODEL 10
REMARK VINA RESULT:    -7.387      2.268      4.623
REMARK INTER + INTRA:          -9.695
REMARK INTER:                  -8.980
REMARK INTRA:                  -0.715
REMARK UNBOUND:                -0.580
REMARK SMILES CCN(CC)C(=O)[C@@H]1C=C2c3cccc4[nH]cc(c34)C[C@H]2N(CC)C1
REMARK SMILES IDX 22 1 16 2 21 3 10 4 20 5 25 6 8 7 18 8 11 9 9 10 19 11 15 12
REMARK SMILES IDX 17 13 12 14 14 15 13 16 6 18 7 19 3 20 2 21 1 22 4 23 5 24
REMARK SMILES IDX 23 25 24 26
REMARK H PARENT 16 17
ROOT
ATOM      1  N   UNL     1      94.241 124.826 117.070  1.00  0.00    -0.295 NA
ATOM      2  N   UNL     1      96.021 121.287 112.500  1.00  0.00    -0.361 N 
ATOM      3  C   UNL     1      94.349 123.921 115.887  1.00  0.00     0.091 C 
ATOM      4  C   UNL     1      93.398 122.692 115.985  1.00  0.00    -0.026 C 
ATOM      5  C   UNL     1      95.812 123.487 115.475  1.00  0.00     0.061 C 
ATOM      6  C   UNL     1      94.181 124.049 118.319  1.00  0.00     0.102 C 
ATOM      7  C   UNL     1      92.892 123.202 118.368  1.00  0.00     0.116 C 
ATOM      8  C   UNL     1      95.752 122.552 114.309  1.00  0.00    -0.020 A 
ATOM      9  C   UNL     1      93.366 121.811 114.798  1.00  0.00    -0.011 A 
ATOM     10  C   UNL     1      92.727 122.381 117.109  1.00  0.00    -0.007 C 
ATOM     11  C   UNL     1      94.566 121.818 114.072  1.00  0.00     0.010 A 
ATOM     12  C   UNL     1      94.739 121.037 112.943  1.00  0.00     0.046 A 
ATOM     13  C   UNL     1      96.644 122.206 113.321  1.00  0.00     0.087 A 
ATOM     14  C   UNL     1      92.338 120.981 114.345  1.00  0.00     0.009 A 
ATOM     15  C   UNL     1      93.722 120.204 112.470  1.00  0.00     0.027 A 
ATOM     16  C   UNL     1      92.518 120.195 113.197  1.00  0.00     0.003 A 
ATOM     17  H   UNL     1      96.441 120.855 111.689  1.00  0.00     0.166 HD
ENDROOT
BRANCH   7  18
ATOM     18  C   UNL     1      92.952 122.308 119.623  1.00  0.00     0.230 C 
ATOM     19  O   UNL     1      93.976 121.674 119.896  1.00  0.00    -0.274 OA
ATOM     20  N   UNL     1      91.828 122.270 120.469  1.00  0.00    -0.343 N 
BRANCH  20  21
ATOM     21  C   UNL     1      90.498 122.732 120.040  1.00  0.00     0.116 C 
ATOM     22  C   UNL     1      90.027 124.037 120.667  1.00  0.00     0.027 C 
ENDBRANCH  20  21
BRANCH  20  23
ATOM     23  C   UNL     1      91.903 121.321 121.588  1.00  0.00     0.116 C 
ATOM     24  C   UNL     1      90.862 120.216 121.487  1.00  0.00     0.027 C 
ENDBRANCH  20  23
ENDBRANCH   7  18
BRANCH   1  25
ATOM     25  C   UNL     1      95.259 125.879 117.083  1.00  0.00     0.082 C 
ATOM     26  C   UNL     1      95.635 126.312 118.497  1.00  0.00     0.021 C 
ENDBRANCH   1  25
TORSDOF 4
ENDMDL
MODEL 11
REMARK VINA RESULT:    -7.381      5.375      8.796
REMARK INTER + INTRA:          -9.687
REMARK INTER:                  -9.063
REMARK INTRA:                  -0.623
REMARK UNBOUND:                -0.580
REMARK SMILES CCN(CC)C(=O)[C@@H]1C=C2c3cccc4[nH]cc(c34)C[C@H]2N(CC)C1
REMARK SMILES IDX 22 1 16 2 21 3 10 4 20 5 25 6 8 7 18 8 11 9 9 10 19 11 15 12
REMARK SMILES IDX 17 13 12 14 14 15 13 16 6 18 7 19 3 20 2 21 1 22 4 23 5 24
REMARK SMILES IDX 23 25 24 26
REMARK H PARENT 16 17
ROOT
ATOM      1  N   UNL     1      88.945 123.770 121.059  1.00  0.00    -0.295 NA
ATOM      2  N   UNL     1      90.590 117.950 121.051  1.00  0.00    -0.361 N 
ATOM      3  C   UNL     1      89.020 122.278 121.024  1.00  0.00     0.091 C 
ATOM      4  C   UNL     1      87.984 121.605 121.972  1.00  0.00    -0.026 C 
ATOM      5  C   UNL     1      90.459 121.650 121.202  1.00  0.00     0.061 C 
ATOM      6  C   UNL     1      88.802 124.254 122.442  1.00  0.00     0.102 C 
ATOM      7  C   UNL     1      87.456 123.791 123.041  1.00  0.00     0.116 C 
ATOM      8  C   UNL     1      90.364 120.157 121.189  1.00  0.00    -0.020 A 
ATOM      9  C   UNL     1      87.921 120.130 121.907  1.00  0.00    -0.011 A 
ATOM     10  C   UNL     1      87.267 122.300 122.874  1.00  0.00    -0.007 C 
ATOM     11  C   UNL     1      89.136 119.540 121.528  1.00  0.00     0.010 A 
ATOM     12  C   UNL     1      89.283 118.168 121.435  1.00  0.00     0.046 A 
ATOM     13  C   UNL     1      91.254 119.150 120.898  1.00  0.00     0.087 A 
ATOM     14  C   UNL     1      86.850 119.280 122.195  1.00  0.00     0.009 A 
ATOM     15  C   UNL     1      88.224 117.301 121.714  1.00  0.00     0.027 A 
ATOM     16  C   UNL     1      87.004 117.889 122.094  1.00  0.00     0.003 A 
ATOM     17  H   UNL     1      90.999 117.038 120.905  1.00  0.00     0.166 HD
ENDROOT
BRANCH   7  18
ATOM     18  C   UNL     1      87.424 124.203 124.526  1.00  0.00     0.230 C 
ATOM     19  O   UNL     1      87.623 123.369 125.415  1.00  0.00    -0.274 OA
ATOM     20  N   UNL     1      87.208 125.558 124.837  1.00  0.00    -0.343 N 
BRANCH  20  21
ATOM     21  C   UNL     1      86.656 126.516 123.866  1.00  0.00     0.116 C 
ATOM     22  C   UNL     1      87.606 127.622 123.428  1.00  0.00     0.027 C 
ENDBRANCH  20  21
BRANCH  20  23
ATOM     23  C   UNL     1      87.082 125.872 126.267  1.00  0.00     0.116 C 
ATOM     24  C   UNL     1      85.788 126.605 126.591  1.00  0.00     0.027 C 
ENDBRANCH  20  23
ENDBRANCH   7  18
BRANCH   1  25
ATOM     25  C   UNL     1      90.033 124.417 120.322  1.00  0.00     0.082 C 
ATOM     26  C   UNL     1      90.783 125.442 121.167  1.00  0.00     0.021 C 
ENDBRANCH   1  25
TORSDOF 4
ENDMDL
MODEL 12
REMARK VINA RESULT:    -7.311      4.942      8.690
REMARK INTER + INTRA:          -9.601
REMARK INTER:                  -9.240
REMARK INTRA:                  -0.361
REMARK UNBOUND:                -0.580
REMARK SMILES CCN(CC)C(=O)[C@@H]1C=C2c3cccc4[nH]cc(c34)C[C@H]2N(CC)C1
REMARK SMILES IDX 22 1 16 2 21 3 10 4 20 5 25 6 8 7 18 8 11 9 9 10 19 11 15 12
REMARK SMILES IDX 17 13 12 14 14 15 13 16 6 18 7 19 3 20 2 21 1 22 4 23 5 24
REMARK SMILES IDX 23 25 24 26
REMARK H PARENT 16 17
ROOT
ATOM      1  N   UNL     1      89.975 124.612 122.005  1.00  0.00    -0.295 NA
ATOM      2  N   UNL     1      86.064 128.984 123.479  1.00  0.00    -0.361 N 
ATOM      3  C   UNL     1      89.047 125.568 122.681  1.00  0.00     0.091 C 
ATOM      4  C   UNL     1      88.047 124.855 123.638  1.00  0.00    -0.026 C 
ATOM      5  C   UNL     1      88.309 126.602 121.741  1.00  0.00     0.061 C 
ATOM      6  C   UNL     1      89.250 123.418 121.541  1.00  0.00     0.102 C 
ATOM      7  C   UNL     1      88.692 122.624 122.742  1.00  0.00     0.116 C 
ATOM      8  C   UNL     1      87.388 127.456 122.554  1.00  0.00    -0.020 A 
ATOM      9  C   UNL     1      87.172 125.746 124.428  1.00  0.00    -0.011 A 
ATOM     10  C   UNL     1      87.903 123.518 123.671  1.00  0.00    -0.007 C 
ATOM     11  C   UNL     1      86.915 126.972 123.796  1.00  0.00     0.010 A 
ATOM     12  C   UNL     1      86.096 127.929 124.368  1.00  0.00     0.046 A 
ATOM     13  C   UNL     1      86.846 128.708 122.376  1.00  0.00     0.087 A 
ATOM     14  C   UNL     1      86.567 125.515 125.667  1.00  0.00     0.009 A 
ATOM     15  C   UNL     1      85.485 127.720 125.607  1.00  0.00     0.027 A 
ATOM     16  C   UNL     1      85.742 126.492 126.243  1.00  0.00     0.003 A 
ATOM     17  H   UNL     1      85.540 129.836 123.620  1.00  0.00     0.166 HD
ENDROOT
BRANCH   7  18
ATOM     18  C   UNL     1      87.827 121.471 122.195  1.00  0.00     0.230 C 
ATOM     19  O   UNL     1      86.836 121.704 121.496  1.00  0.00    -0.274 OA
ATOM     20  N   UNL     1      88.222 120.150 122.476  1.00  0.00    -0.343 N 
BRANCH  20  21
ATOM     21  C   UNL     1      89.179 119.819 123.544  1.00  0.00     0.116 C 
ATOM     22  C   UNL     1      90.627 120.193 123.263  1.00  0.00     0.027 C 
ENDBRANCH  20  21
BRANCH  20  23
ATOM     23  C   UNL     1      87.303 119.098 122.021  1.00  0.00     0.116 C 
ATOM     24  C   UNL     1      87.494 117.790 122.774  1.00  0.00     0.027 C 
ENDBRANCH  20  23
ENDBRANCH   7  18
BRANCH   1  25
ATOM     25  C   UNL     1      90.791 125.243 120.965  1.00  0.00     0.082 C 
ATOM     26  C   UNL     1      91.350 124.231 119.968  1.00  0.00     0.021 C 
ENDBRANCH   1  25
TORSDOF 4
ENDMDL
MODEL 13
REMARK VINA RESULT:    -7.208      3.233      7.752
REMARK INTER + INTRA:          -9.473
REMARK INTER:                  -9.819
REMARK INTRA:                   0.347
REMARK UNBOUND:                -0.580
REMARK SMILES CCN(CC)C(=O)[C@@H]1C=C2c3cccc4[nH]cc(c34)C[C@H]2N(CC)C1
REMARK SMILES IDX 22 1 16 2 21 3 10 4 20 5 25 6 8 7 18 8 11 9 9 10 19 11 15 12
REMARK SMILES IDX 17 13 12 14 14 15 13 16 6 18 7 19 3 20 2 21 1 22 4 23 5 24
REMARK SMILES IDX 23 25 24 26
REMARK H PARENT 16 17
ROOT
ATOM      1  N   UNL     1      93.378 120.785 119.609  1.00  0.00    -0.295 NA
ATOM      2  N   UNL     1      88.747 121.724 123.384  1.00  0.00    -0.361 N 
ATOM      3  C   UNL     1      92.218 120.680 120.545  1.00  0.00     0.091 C 
ATOM      4  C   UNL     1      91.128 119.691 120.037  1.00  0.00    -0.026 C 
ATOM      5  C   UNL     1      91.583 122.046 121.020  1.00  0.00     0.061 C 
ATOM      6  C   UNL     1      92.918 120.864 118.213  1.00  0.00     0.102 C 
ATOM      7  C   UNL     1      92.213 119.554 117.801  1.00  0.00     0.116 C 
ATOM      8  C   UNL     1      90.412 121.776 121.912  1.00  0.00    -0.020 A 
ATOM      9  C   UNL     1      90.003 119.448 120.964  1.00  0.00    -0.011 A 
ATOM     10  C   UNL     1      91.141 119.172 118.796  1.00  0.00    -0.007 C 
ATOM     11  C   UNL     1      89.743 120.533 121.815  1.00  0.00     0.010 A 
ATOM     12  C   UNL     1      88.712 120.506 122.737  1.00  0.00     0.046 A 
ATOM     13  C   UNL     1      89.776 122.501 122.892  1.00  0.00     0.087 A 
ATOM     14  C   UNL     1      89.177 118.327 121.072  1.00  0.00     0.009 A 
ATOM     15  C   UNL     1      87.878 119.392 122.865  1.00  0.00     0.027 A 
ATOM     16  C   UNL     1      88.136 118.303 122.012  1.00  0.00     0.003 A 
ATOM     17  H   UNL     1      88.106 122.003 124.113  1.00  0.00     0.166 HD
ENDROOT
BRANCH   7  18
ATOM     18  C   UNL     1      91.631 119.745 116.386  1.00  0.00     0.230 C 
ATOM     19  O   UNL     1      90.438 119.519 116.161  1.00  0.00    -0.274 OA
ATOM     20  N   UNL     1      92.482 120.227 115.375  1.00  0.00    -0.343 N 
BRANCH  20  21
ATOM     21  C   UNL     1      93.949 120.206 115.497  1.00  0.00     0.116 C 
ATOM     22  C   UNL     1      94.627 121.568 115.455  1.00  0.00     0.027 C 
ENDBRANCH  20  21
BRANCH  20  23
ATOM     23  C   UNL     1      91.901 120.288 114.027  1.00  0.00     0.116 C 
ATOM     24  C   UNL     1      92.955 120.201 112.933  1.00  0.00     0.027 C 
ENDBRANCH  20  23
ENDBRANCH   7  18
BRANCH   1  25
ATOM     25  C   UNL     1      94.318 121.847 119.977  1.00  0.00     0.082 C 
ATOM     26  C   UNL     1      95.709 121.309 120.300  1.00  0.00     0.021 C 
ENDBRANCH   1  25
TORSDOF 4
ENDMDL
MODEL 14
REMARK VINA RESULT:    -7.178      5.078      8.101
REMARK INTER + INTRA:          -9.436
REMARK INTER:                  -8.847
REMARK INTRA:                  -0.589
REMARK UNBOUND:                -0.580
REMARK SMILES CCN(CC)C(=O)[C@@H]1C=C2c3cccc4[nH]cc(c34)C[C@H]2N(CC)C1
REMARK SMILES IDX 22 1 16 2 21 3 10 4 20 5 25 6 8 7 18 8 11 9 9 10 19 11 15 12
REMARK SMILES IDX 17 13 12 14 14 15 13 16 6 18 7 19 3 20 2 21 1 22 4 23 5 24
REMARK SMILES IDX 23 25 24 26
REMARK H PARENT 16 17
ROOT
ATOM      1  N   UNL     1      88.343 122.699 124.056  1.00  0.00    -0.295 NA
ATOM      2  N   UNL     1      90.422 118.389 120.356  1.00  0.00    -0.361 N 
ATOM      3  C   UNL     1      89.158 121.761 123.226  1.00  0.00     0.091 C 
ATOM      4  C   UNL     1      90.239 122.497 122.380  1.00  0.00    -0.026 C 
ATOM      5  C   UNL     1      88.348 120.725 122.350  1.00  0.00     0.061 C 
ATOM      6  C   UNL     1      87.973 123.895 123.282  1.00  0.00     0.102 C 
ATOM      7  C   UNL     1      89.231 124.710 122.911  1.00  0.00     0.116 C 
ATOM      8  C   UNL     1      89.295 119.891 121.547  1.00  0.00    -0.020 A 
ATOM      9  C   UNL     1      91.159 121.625 121.620  1.00  0.00    -0.011 A 
ATOM     10  C   UNL     1      90.276 123.836 122.255  1.00  0.00    -0.007 C 
ATOM     11  C   UNL     1      90.587 120.395 121.262  1.00  0.00     0.010 A 
ATOM     12  C   UNL     1      91.283 119.454 120.525  1.00  0.00     0.046 A 
ATOM     13  C   UNL     1      89.214 118.644 120.973  1.00  0.00     0.087 A 
ATOM     14  C   UNL     1      92.468 121.877 121.202  1.00  0.00     0.009 A 
ATOM     15  C   UNL     1      92.594 119.684 120.102  1.00  0.00     0.027 A 
ATOM     16  C   UNL     1      93.171 120.916 120.459  1.00  0.00     0.003 A 
ATOM     17  H   UNL     1      90.647 117.545 119.848  1.00  0.00     0.166 HD
ENDROOT
BRANCH   7  18
ATOM     18  C   UNL     1      88.799 125.866 121.988  1.00  0.00     0.230 C 
ATOM     19  O   UNL     1      89.020 125.818 120.774  1.00  0.00    -0.274 OA
ATOM     20  N   UNL     1      88.109 126.952 122.557  1.00  0.00    -0.343 N 
BRANCH  20  21
ATOM     21  C   UNL     1      88.103 127.215 124.006  1.00  0.00     0.116 C 
ATOM     22  C   UNL     1      86.741 127.126 124.679  1.00  0.00     0.027 C 
ENDBRANCH  20  21
BRANCH  20  23
ATOM     23  C   UNL     1      87.818 128.070 121.650  1.00  0.00     0.116 C 
ATOM     24  C   UNL     1      86.413 128.001 121.071  1.00  0.00     0.027 C 
ENDBRANCH  20  23
ENDBRANCH   7  18
BRANCH   1  25
ATOM     25  C   UNL     1      87.205 122.047 124.708  1.00  0.00     0.082 C 
ATOM     26  C   UNL     1      86.082 123.026 125.038  1.00  0.00     0.021 C 
ENDBRANCH   1  25
TORSDOF 4
ENDMDL
MODEL 15
REMARK VINA RESULT:    -6.917      5.721      9.661
REMARK INTER + INTRA:          -9.114
REMARK INTER:                  -8.455
REMARK INTRA:                  -0.659
REMARK UNBOUND:                -0.580
REMARK SMILES CCN(CC)C(=O)[C@@H]1C=C2c3cccc4[nH]cc(c34)C[C@H]2N(CC)C1
REMARK SMILES IDX 22 1 16 2 21 3 10 4 20 5 25 6 8 7 18 8 11 9 9 10 19 11 15 12
REMARK SMILES IDX 17 13 12 14 14 15 13 16 6 18 7 19 3 20 2 21 1 22 4 23 5 24
REMARK SMILES IDX 23 25 24 26
REMARK H PARENT 16 17
ROOT
ATOM      1  N   UNL     1      88.269 125.503 125.384  1.00  0.00    -0.295 NA
ATOM      2  N   UNL     1      88.558 121.094 121.254  1.00  0.00    -0.361 N 
ATOM      3  C   UNL     1      88.640 124.552 124.293  1.00  0.00     0.091 C 
ATOM      4  C   UNL     1      89.169 125.277 123.021  1.00  0.00    -0.026 C 
ATOM      5  C   UNL     1      87.559 123.459 123.926  1.00  0.00     0.061 C 
ATOM      6  C   UNL     1      87.531 126.656 124.844  1.00  0.00     0.102 C 
ATOM      7  C   UNL     1      88.433 127.485 123.905  1.00  0.00     0.116 C 
ATOM      8  C   UNL     1      88.056 122.616 122.795  1.00  0.00    -0.020 A 
ATOM      9  C   UNL     1      89.663 124.398 121.941  1.00  0.00    -0.011 A 
ATOM     10  C   UNL     1      89.087 126.611 122.859  1.00  0.00    -0.007 C 
ATOM     11  C   UNL     1      89.043 123.139 121.925  1.00  0.00     0.010 A 
ATOM     12  C   UNL     1      89.352 122.186 120.973  1.00  0.00     0.046 A 
ATOM     13  C   UNL     1      87.768 121.344 122.358  1.00  0.00     0.087 A 
ATOM     14  C   UNL     1      90.614 124.665 120.953  1.00  0.00     0.009 A 
ATOM     15  C   UNL     1      90.303 122.431 119.978  1.00  0.00     0.027 A 
ATOM     16  C   UNL     1      90.927 123.691 119.992  1.00  0.00     0.003 A 
ATOM     17  H   UNL     1      88.556 120.235 120.722  1.00  0.00     0.166 HD
ENDROOT
BRANCH   7  18
ATOM     18  C   UNL     1      87.572 128.590 123.262  1.00  0.00     0.230 C 
ATOM     19  O   UNL     1      86.851 128.341 122.292  1.00  0.00    -0.274 OA
ATOM     20  N   UNL     1      87.596 129.874 123.838  1.00  0.00    -0.343 N 
BRANCH  20  21
ATOM     21  C   UNL     1      88.652 130.306 124.768  1.00  0.00     0.116 C 
ATOM     22  C   UNL     1      89.959 130.736 124.118  1.00  0.00     0.027 C 
ENDBRANCH  20  21
BRANCH  20  23
ATOM     23  C   UNL     1      86.841 130.909 123.121  1.00  0.00     0.116 C 
ATOM     24  C   UNL     1      86.259 131.961 124.055  1.00  0.00     0.027 C 
ENDBRANCH  20  23
ENDBRANCH   7  18
BRANCH   1  25
ATOM     25  C   UNL     1      87.595 124.851 126.510  1.00  0.00     0.082 C 
ATOM     26  C   UNL     1      86.131 125.264 126.633  1.00  0.00     0.021 C 
ENDBRANCH   1  25
TORSDOF 4
ENDMDL
MODEL 16
REMARK VINA RESULT:    -6.901      3.766      5.858
REMARK INTER + INTRA:          -9.095
REMARK INTER:                  -9.421
REMARK INTRA:                   0.326
REMARK UNBOUND:                -0.580
REMARK SMILES CCN(CC)C(=O)[C@@H]1C=C2c3cccc4[nH]cc(c34)C[C@H]2N(CC)C1
REMARK SMILES IDX 22 1 16 2 21 3 10 4 20 5 25 6 8 7 18 8 11 9 9 10 19 11 15 12
REMARK SMILES IDX 17 13 12 14 14 15 13 16 6 18 7 19 3 20 2 21 1 22 4 23 5 24
REMARK SMILES IDX 23 25 24 26
REMARK H PARENT 16 17
ROOT
ATOM      1  N   UNL     1      89.369 119.103 121.947  1.00  0.00    -0.295 NA
ATOM      2  N   UNL     1      92.697 119.592 116.920  1.00  0.00    -0.361 N 
ATOM      3  C   UNL     1      90.442 119.286 120.922  1.00  0.00     0.091 C 
ATOM      4  C   UNL     1      91.297 120.563 121.174  1.00  0.00    -0.026 C 
ATOM      5  C   UNL     1      89.985 119.186 119.413  1.00  0.00     0.061 C 
ATOM      6  C   UNL     1      88.700 120.382 122.238  1.00  0.00     0.102 C 
ATOM      7  C   UNL     1      89.688 121.372 122.892  1.00  0.00     0.116 C 
ATOM      8  C   UNL     1      91.155 119.433 118.514  1.00  0.00    -0.020 A 
ATOM      9  C   UNL     1      92.449 120.750 120.268  1.00  0.00    -0.011 A 
ATOM     10  C   UNL     1      90.957 121.497 122.081  1.00  0.00    -0.007 C 
ATOM     11  C   UNL     1      92.260 120.169 119.005  1.00  0.00     0.010 A 
ATOM     12  C   UNL     1      93.216 120.260 118.009  1.00  0.00     0.046 A 
ATOM     13  C   UNL     1      91.447 119.086 117.215  1.00  0.00     0.087 A 
ATOM     14  C   UNL     1      93.646 121.434 120.494  1.00  0.00     0.009 A 
ATOM     15  C   UNL     1      94.422 120.935 118.217  1.00  0.00     0.027 A 
ATOM     16  C   UNL     1      94.614 121.518 119.482  1.00  0.00     0.003 A 
ATOM     17  H   UNL     1      93.168 119.492 116.032  1.00  0.00     0.166 HD
ENDROOT
BRANCH   7  18
ATOM     18  C   UNL     1      88.976 122.731 123.043  1.00  0.00     0.230 C 
ATOM     19  O   UNL     1      88.450 123.051 124.114  1.00  0.00    -0.274 OA
ATOM     20  N   UNL     1      88.982 123.612 121.946  1.00  0.00    -0.343 N 
BRANCH  20  21
ATOM     21  C   UNL     1      89.299 123.172 120.578  1.00  0.00     0.116 C 
ATOM     22  C   UNL     1      90.438 123.919 119.899  1.00  0.00     0.027 C 
ENDBRANCH  20  21
BRANCH  20  23
ATOM     23  C   UNL     1      88.199 124.844 122.113  1.00  0.00     0.116 C 
ATOM     24  C   UNL     1      89.072 126.054 122.416  1.00  0.00     0.027 C 
ENDBRANCH  20  23
ENDBRANCH   7  18
BRANCH   1  25
ATOM     25  C   UNL     1      88.441 118.018 121.619  1.00  0.00     0.082 C 
ATOM     26  C   UNL     1      87.084 118.185 122.296  1.00  0.00     0.021 C 
ENDBRANCH   1  25
TORSDOF 4
ENDMDL
MODEL 17
REMARK VINA RESULT:    -6.881      2.803      7.067
REMARK INTER + INTRA:          -9.070
REMARK INTER:                  -9.679
REMARK INTRA:                   0.609
REMARK UNBOUND:                -0.580
REMARK SMILES CCN(CC)C(=O)[C@@H]1C=C2c3cccc4[nH]cc(c34)C[C@H]2N(CC)C1
REMARK SMILES IDX 22 1 16 2 21 3 10 4 20 5 25 6 8 7 18 8 11 9 9 10 19 11 15 12
REMARK SMILES IDX 17 13 12 14 14 15 13 16 6 18 7 19 3 20 2 21 1 22 4 23 5 24
REMARK SMILES IDX 23 25 24 26
REMARK H PARENT 16 17
ROOT
ATOM      1  N   UNL     1      92.432 122.485 119.535  1.00  0.00    -0.295 NA
ATOM      2  N   UNL     1      87.910 124.739 122.860  1.00  0.00    -0.361 N 
ATOM      3  C   UNL     1      91.392 122.788 120.565  1.00  0.00     0.091 C 
ATOM      4  C   UNL     1      90.592 121.524 120.996  1.00  0.00    -0.026 C 
ATOM      5  C   UNL     1      90.429 124.000 120.245  1.00  0.00     0.061 C 
ATOM      6  C   UNL     1      91.900 121.575 118.508  1.00  0.00     0.102 C 
ATOM      7  C   UNL     1      91.563 120.200 119.125  1.00  0.00     0.116 C 
ATOM      8  C   UNL     1      89.423 124.149 121.342  1.00  0.00    -0.020 A 
ATOM      9  C   UNL     1      89.623 121.724 122.095  1.00  0.00    -0.011 A 
ATOM     10  C   UNL     1      90.687 120.349 120.348  1.00  0.00    -0.007 C 
ATOM     11  C   UNL     1      89.118 123.032 122.155  1.00  0.00     0.010 A 
ATOM     12  C   UNL     1      88.179 123.408 123.099  1.00  0.00     0.046 A 
ATOM     13  C   UNL     1      88.660 125.199 121.796  1.00  0.00     0.087 A 
ATOM     14  C   UNL     1      89.144 120.800 123.026  1.00  0.00     0.009 A 
ATOM     15  C   UNL     1      87.691 122.500 124.043  1.00  0.00     0.027 A 
ATOM     16  C   UNL     1      88.196 121.189 123.985  1.00  0.00     0.003 A 
ATOM     17  H   UNL     1      87.253 125.295 123.390  1.00  0.00     0.166 HD
ENDROOT
BRANCH   7  18
ATOM     18  C   UNL     1      90.883 119.340 118.042  1.00  0.00     0.230 C 
ATOM     19  O   UNL     1      90.019 118.512 118.347  1.00  0.00    -0.274 OA
ATOM     20  N   UNL     1      91.239 119.556 116.698  1.00  0.00    -0.343 N 
BRANCH  20  21
ATOM     21  C   UNL     1      92.462 120.278 116.309  1.00  0.00     0.116 C 
ATOM     22  C   UNL     1      92.590 120.590 114.825  1.00  0.00     0.027 C 
ENDBRANCH  20  21
BRANCH  20  23
ATOM     23  C   UNL     1      90.639 118.637 115.723  1.00  0.00     0.116 C 
ATOM     24  C   UNL     1      89.202 119.004 115.382  1.00  0.00     0.027 C 
ENDBRANCH  20  23
ENDBRANCH   7  18
BRANCH   1  25
ATOM     25  C   UNL     1      93.060 123.688 118.983  1.00  0.00     0.082 C 
ATOM     26  C   UNL     1      93.389 123.546 117.499  1.00  0.00     0.021 C 
ENDBRANCH   1  25
TORSDOF 4
ENDMDL
MODEL 18
REMARK VINA RESULT:    -6.792      4.110      8.470
REMARK INTER + INTRA:          -8.960
REMARK INTER:                  -8.504
REMARK INTRA:                  -0.456
REMARK UNBOUND:                -0.580
REMARK SMILES CCN(CC)C(=O)[C@@H]1C=C2c3cccc4[nH]cc(c34)C[C@H]2N(CC)C1
REMARK SMILES IDX 22 1 16 2 21 3 10 4 20 5 25 6 8 7 18 8 11 9 9 10 19 11 15 12
REMARK SMILES IDX 17 13 12 14 14 15 13 16 6 18 7 19 3 20 2 21 1 22 4 23 5 24
REMARK SMILES IDX 23 25 24 26
REMARK H PARENT 16 17
ROOT
ATOM      1  N   UNL     1      88.080 122.230 122.670  1.00  0.00    -0.295 NA
ATOM      2  N   UNL     1      87.198 127.320 125.817  1.00  0.00    -0.361 N 
ATOM      3  C   UNL     1      87.712 123.592 123.163  1.00  0.00     0.091 C 
ATOM      4  C   UNL     1      88.082 124.715 122.151  1.00  0.00    -0.026 C 
ATOM      5  C   UNL     1      88.188 123.953 124.626  1.00  0.00     0.061 C 
ATOM      6  C   UNL     1      89.416 122.242 122.052  1.00  0.00     0.102 C 
ATOM      7  C   UNL     1      89.417 123.121 120.783  1.00  0.00     0.116 C 
ATOM      8  C   UNL     1      87.785 125.355 124.958  1.00  0.00    -0.020 A 
ATOM      9  C   UNL     1      87.646 126.078 122.520  1.00  0.00    -0.011 A 
ATOM     10  C   UNL     1      88.843 124.491 121.064  1.00  0.00    -0.007 C 
ATOM     11  C   UNL     1      87.549 126.272 123.906  1.00  0.00     0.010 A 
ATOM     12  C   UNL     1      87.180 127.490 124.448  1.00  0.00     0.046 A 
ATOM     13  C   UNL     1      87.563 126.027 126.137  1.00  0.00     0.087 A 
ATOM     14  C   UNL     1      87.358 127.166 121.691  1.00  0.00     0.009 A 
ATOM     15  C   UNL     1      86.884 128.589 123.637  1.00  0.00     0.027 A 
ATOM     16  C   UNL     1      86.980 128.397 122.247  1.00  0.00     0.003 A 
ATOM     17  H   UNL     1      86.977 128.043 126.487  1.00  0.00     0.166 HD
ENDROOT
BRANCH   7  18
ATOM     18  C   UNL     1      90.865 123.210 120.261  1.00  0.00     0.230 C 
ATOM     19  O   UNL     1      91.474 124.284 120.273  1.00  0.00    -0.274 OA
ATOM     20  N   UNL     1      91.487 122.029 119.816  1.00  0.00    -0.343 N 
BRANCH  20  21
ATOM     21  C   UNL     1      90.730 120.812 119.481  1.00  0.00     0.116 C 
ATOM     22  C   UNL     1      91.082 119.577 120.298  1.00  0.00     0.027 C 
ENDBRANCH  20  21
BRANCH  20  23
ATOM     23  C   UNL     1      92.825 122.193 119.233  1.00  0.00     0.116 C 
ATOM     24  C   UNL     1      92.836 121.977 117.727  1.00  0.00     0.027 C 
ENDBRANCH  20  23
ENDBRANCH   7  18
BRANCH   1  25
ATOM     25  C   UNL     1      87.912 121.187 123.684  1.00  0.00     0.082 C 
ATOM     26  C   UNL     1      89.020 120.139 123.633  1.00  0.00     0.021 C 
ENDBRANCH   1  25
TORSDOF 4
ENDMDL
