MODEL 1
REMARK VINA RESULT:    -8.681      0.000      0.000
REMARK INTER + INTRA:         -11.429
REMARK INTER:                 -10.711
REMARK INTRA:                  -0.718
REMARK UNBOUND:                -0.718
REMARK SMILES CCN(CC)C(=O)[C@@H]1C=C2c3cccc4[nH]cc(c34)C[C@H]2N(CC)C1
REMARK SMILES IDX 22 1 16 2 21 3 10 4 20 5 25 6 8 7 18 8 11 9 9 10 19 11 15 12
REMARK SMILES IDX 17 13 12 14 14 15 13 16 6 18 7 19 3 20 2 21 1 22 4 23 5 24
REMARK SMILES IDX 23 25 24 26
REMARK H PARENT 16 17
ROOT
ATOM      1  N   UNL     1     105.121 117.894 111.078  1.00  0.00    -0.295 NA
ATOM      2  N   UNL     1     101.093 122.123 112.651  1.00  0.00    -0.361 N 
ATOM      3  C   UNL     1     103.983 118.685 111.638  1.00  0.00     0.091 C 
ATOM      4  C   UNL     1     102.613 117.966 111.465  1.00  0.00    -0.026 C 
ATOM      5  C   UNL     1     103.901 120.198 111.189  1.00  0.00     0.061 C 
ATOM      6  C   UNL     1     104.762 117.313 109.774  1.00  0.00     0.102 C 
ATOM      7  C   UNL     1     103.624 116.283 109.935  1.00  0.00     0.116 C 
ATOM      8  C   UNL     1     102.692 120.840 111.792  1.00  0.00    -0.020 A 
ATOM      9  C   UNL     1     101.455 118.635 112.095  1.00  0.00    -0.011 A 
ATOM     10  C   UNL     1     102.461 116.867 110.704  1.00  0.00    -0.007 C 
ATOM     11  C   UNL     1     101.604 120.027 112.188  1.00  0.00     0.010 A 
ATOM     12  C   UNL     1     100.615 120.831 112.725  1.00  0.00     0.046 A 
ATOM     13  C   UNL     1     102.353 122.140 112.087  1.00  0.00     0.087 A 
ATOM     14  C   UNL     1     100.263 118.077 112.563  1.00  0.00     0.009 A 
ATOM     15  C   UNL     1      99.418 120.294 113.204  1.00  0.00     0.027 A 
ATOM     16  C   UNL     1      99.266 118.898 113.111  1.00  0.00     0.003 A 
ATOM     17  H   UNL     1     100.587 122.940 112.964  1.00  0.00     0.166 HD
ENDROOT
BRANCH   7  18
ATOM     18  C   UNL     1     103.197 115.816 108.529  1.00  0.00     0.230 C 
ATOM     19  O   UNL     1     103.084 116.625 107.604  1.00  0.00    -0.274 OA
ATOM     20  N   UNL     1     102.984 114.441 108.320  1.00  0.00    -0.343 N 
BRANCH  20  21
ATOM     21  C   UNL     1     102.789 113.491 109.428  1.00  0.00     0.116 C 
ATOM     22  C   UNL     1     101.445 112.777 109.448  1.00  0.00     0.027 C 
ENDBRANCH  20  21
BRANCH  20  23
ATOM     23  C   UNL     1     102.476 114.068 106.993  1.00  0.00     0.116 C 
ATOM     24  C   UNL     1     103.415 113.127 106.252  1.00  0.00     0.027 C 
ENDBRANCH  20  23
ENDBRANCH   7  18
BRANCH   1  25
ATOM     25  C   UNL     1     106.383 118.637 111.062  1.00  0.00     0.082 C 
ATOM     26  C   UNL     1     107.026 118.666 109.679  1.00  0.00     0.021 C 
ENDBRANCH   1  25
TORSDOF 4
ENDMDL
MODEL 2
REMARK VINA RESULT:    -7.749      2.307      6.541
REMARK INTER + INTRA:         -10.278
REMARK INTER:                  -9.582
REMARK INTRA:                  -0.696
REMARK UNBOUND:                -0.718
REMARK SMILES CCN(CC)C(=O)[C@@H]1C=C2c3cccc4[nH]cc(c34)C[C@H]2N(CC)C1
REMARK SMILES IDX 22 1 16 2 21 3 10 4 20 5 25 6 8 7 18 8 11 9 9 10 19 11 15 12
REMARK SMILES IDX 17 13 12 14 14 15 13 16 6 18 7 19 3 20 2 21 1 22 4 23 5 24
REMARK SMILES IDX 23 25 24 26
REMARK H PARENT 16 17
ROOT
ATOM      1  N   UNL     1     103.609 120.208 111.006  1.00  0.00    -0.295 NA
ATOM      2  N   UNL     1     106.447 115.030 109.695  1.00  0.00    -0.361 N 
ATOM      3  C   UNL     1     104.040 118.874 110.488  1.00  0.00     0.091 C 
ATOM      4  C   UNL     1     102.908 117.807 110.570  1.00  0.00    -0.026 C 
ATOM      5  C   UNL     1     105.403 118.314 111.057  1.00  0.00     0.061 C 
ATOM      6  C   UNL     1     102.836 120.061 112.250  1.00  0.00     0.102 C 
ATOM      7  C   UNL     1     101.514 119.312 111.980  1.00  0.00     0.116 C 
ATOM      8  C   UNL     1     105.674 116.961 110.481  1.00  0.00    -0.020 A 
ATOM      9  C   UNL     1     103.223 116.493 109.971  1.00  0.00    -0.011 A 
ATOM     10  C   UNL     1     101.758 118.019 111.235  1.00  0.00    -0.007 C 
ATOM     11  C   UNL     1     104.593 116.188 109.995  1.00  0.00     0.010 A 
ATOM     12  C   UNL     1     105.082 114.991 109.504  1.00  0.00     0.046 A 
ATOM     13  C   UNL     1     106.817 116.221 110.286  1.00  0.00     0.087 A 
ATOM     14  C   UNL     1     102.356 115.540 109.433  1.00  0.00     0.009 A 
ATOM     15  C   UNL     1     104.232 114.027 108.956  1.00  0.00     0.027 A 
ATOM     16  C   UNL     1     102.858 114.330 108.931  1.00  0.00     0.003 A 
ATOM     17  H   UNL     1     107.083 114.288 109.438  1.00  0.00     0.166 HD
ENDROOT
BRANCH   7  18
ATOM     18  C   UNL     1     100.817 119.063 113.333  1.00  0.00     0.230 C 
ATOM     19  O   UNL     1     101.466 118.698 114.317  1.00  0.00    -0.274 OA
ATOM     20  N   UNL     1      99.435 119.308 113.425  1.00  0.00    -0.343 N 
BRANCH  20  21
ATOM     21  C   UNL     1      98.570 119.428 112.240  1.00  0.00     0.116 C 
ATOM     22  C   UNL     1      98.136 120.844 111.889  1.00  0.00     0.027 C 
ENDBRANCH  20  21
BRANCH  20  23
ATOM     23  C   UNL     1      98.808 118.953 114.705  1.00  0.00     0.116 C 
ATOM     24  C   UNL     1      98.561 120.165 115.591  1.00  0.00     0.027 C 
ENDBRANCH  20  23
ENDBRANCH   7  18
BRANCH   1  25
ATOM     25  C   UNL     1     104.712 121.166 111.111  1.00  0.00     0.082 C 
ATOM     26  C   UNL     1     104.573 122.086 112.320  1.00  0.00     0.021 C 
ENDBRANCH   1  25
TORSDOF 4
ENDMDL
MODEL 3
REMARK VINA RESULT:    -7.701      6.251     10.562
REMARK INTER + INTRA:         -10.219
REMARK INTER:                  -9.546
REMARK INTRA:                  -0.673
REMARK UNBOUND:                -0.718
REMARK SMILES CCN(CC)C(=O)[C@@H]1C=C2c3cccc4[nH]cc(c34)C[C@H]2N(CC)C1
REMARK SMILES IDX 22 1 16 2 21 3 10 4 20 5 25 6 8 7 18 8 11 9 9 10 19 11 15 12
REMARK SMILES IDX 17 13 12 14 14 15 13 16 6 18 7 19 3 20 2 21 1 22 4 23 5 24
REMARK SMILES IDX 23 25 24 26
REMARK H PARENT 16 17
ROOT
ATOM      1  N   UNL     1      94.115 119.169 116.207  1.00  0.00    -0.295 NA
ATOM      2  N   UNL     1      94.026 113.122 116.106  1.00  0.00    -0.361 N 
ATOM      3  C   UNL     1      94.365 117.706 116.380  1.00  0.00     0.091 C 
ATOM      4  C   UNL     1      95.857 117.323 116.151  1.00  0.00    -0.026 C 
ATOM      5  C   UNL     1      93.394 116.737 115.595  1.00  0.00     0.061 C 
ATOM      6  C   UNL     1      94.826 119.684 115.026  1.00  0.00     0.102 C 
ATOM      7  C   UNL     1      96.353 119.580 115.225  1.00  0.00     0.116 C 
ATOM      8  C   UNL     1      93.796 115.316 115.832  1.00  0.00    -0.020 A 
ATOM      9  C   UNL     1      96.203 115.910 116.416  1.00  0.00    -0.011 A 
ATOM     10  C   UNL     1      96.757 118.183 115.642  1.00  0.00    -0.007 C 
ATOM     11  C   UNL     1      95.128 115.031 116.217  1.00  0.00     0.010 A 
ATOM     12  C   UNL     1      95.262 113.665 116.390  1.00  0.00     0.046 A 
ATOM     13  C   UNL     1      93.129 114.115 115.768  1.00  0.00     0.087 A 
ATOM     14  C   UNL     1      97.430 115.360 116.795  1.00  0.00     0.009 A 
ATOM     15  C   UNL     1      96.478 113.095 116.774  1.00  0.00     0.027 A 
ATOM     16  C   UNL     1      97.558 113.974 116.974  1.00  0.00     0.003 A 
ATOM     17  H   UNL     1      93.813 112.135 116.141  1.00  0.00     0.166 HD
ENDROOT
BRANCH   7  18
ATOM     18  C   UNL     1      97.039 119.999 113.910  1.00  0.00     0.230 C 
ATOM     19  O   UNL     1      96.696 119.500 112.834  1.00  0.00    -0.274 OA
ATOM     20  N   UNL     1      98.032 120.994 113.964  1.00  0.00    -0.343 N 
BRANCH  20  21
ATOM     21  C   UNL     1      98.697 121.383 115.219  1.00  0.00     0.116 C 
ATOM     22  C   UNL     1      99.053 122.858 115.339  1.00  0.00     0.027 C 
ENDBRANCH  20  21
BRANCH  20  23
ATOM     23  C   UNL     1      98.724 121.276 112.699  1.00  0.00     0.116 C 
ATOM     24  C   UNL     1     100.042 120.525 112.574  1.00  0.00     0.027 C 
ENDBRANCH  20  23
ENDBRANCH   7  18
BRANCH   1  25
ATOM     25  C   UNL     1      92.692 119.515 116.232  1.00  0.00     0.082 C 
ATOM     26  C   UNL     1      92.105 119.474 117.640  1.00  0.00     0.021 C 
ENDBRANCH   1  25
TORSDOF 4
ENDMDL
MODEL 4
REMARK VINA RESULT:    -7.435      2.409      6.807
REMARK INTER + INTRA:          -9.891
REMARK INTER:                  -9.170
REMARK INTRA:                  -0.721
REMARK UNBOUND:                -0.718
REMARK SMILES CCN(CC)C(=O)[C@@H]1C=C2c3cccc4[nH]cc(c34)C[C@H]2N(CC)C1
REMARK SMILES IDX 22 1 16 2 21 3 10 4 20 5 25 6 8 7 18 8 11 9 9 10 19 11 15 12
REMARK SMILES IDX 17 13 12 14 14 15 13 16 6 18 7 19 3 20 2 21 1 22 4 23 5 24
REMARK SMILES IDX 23 25 24 26
REMARK H PARENT 16 17
ROOT
ATOM      1  N   UNL     1     101.248 115.770 111.864  1.00  0.00    -0.295 NA
ATOM      2  N   UNL     1     105.506 116.935 107.729  1.00  0.00    -0.361 N 
ATOM      3  C   UNL     1     102.463 116.195 111.105  1.00  0.00     0.091 C 
ATOM      4  C   UNL     1     102.875 117.665 111.410  1.00  0.00    -0.026 C 
ATOM      5  C   UNL     1     102.445 115.911 109.551  1.00  0.00     0.061 C 
ATOM      6  C   UNL     1     100.227 116.830 111.852  1.00  0.00     0.102 C 
ATOM      7  C   UNL     1     100.732 118.078 112.608  1.00  0.00     0.116 C 
ATOM      8  C   UNL     1     103.702 116.430 108.927  1.00  0.00    -0.020 A 
ATOM      9  C   UNL     1     104.133 118.120 110.782  1.00  0.00    -0.011 A 
ATOM     10  C   UNL     1     102.092 118.509 112.107  1.00  0.00    -0.007 C 
ATOM     11  C   UNL     1     104.423 117.457 109.580  1.00  0.00     0.010 A 
ATOM     12  C   UNL     1     105.546 117.763 108.832  1.00  0.00     0.046 A 
ATOM     13  C   UNL     1     104.392 116.121 107.778  1.00  0.00     0.087 A 
ATOM     14  C   UNL     1     105.021 119.113 111.206  1.00  0.00     0.009 A 
ATOM     15  C   UNL     1     106.448 118.748 109.240  1.00  0.00     0.027 A 
ATOM     16  C   UNL     1     106.160 119.414 110.445  1.00  0.00     0.003 A 
ATOM     17  H   UNL     1     106.196 116.929 106.992  1.00  0.00     0.166 HD
ENDROOT
BRANCH   7  18
ATOM     18  C   UNL     1      99.686 119.198 112.442  1.00  0.00     0.230 C 
ATOM     19  O   UNL     1      99.571 119.798 111.369  1.00  0.00    -0.274 OA
ATOM     20  N   UNL     1      98.838 119.484 113.528  1.00  0.00    -0.343 N 
BRANCH  20  21
ATOM     21  C   UNL     1      99.132 119.042 114.901  1.00  0.00     0.116 C 
ATOM     22  C   UNL     1      98.337 117.838 115.383  1.00  0.00     0.027 C 
ENDBRANCH  20  21
BRANCH  20  23
ATOM     23  C   UNL     1      97.936 120.629 113.348  1.00  0.00     0.116 C 
ATOM     24  C   UNL     1      96.503 120.204 113.064  1.00  0.00     0.027 C 
ENDBRANCH  20  23
ENDBRANCH   7  18
BRANCH   1  25
ATOM     25  C   UNL     1     100.739 114.461 111.448  1.00  0.00     0.082 C 
ATOM     26  C   UNL     1      99.256 114.284 111.763  1.00  0.00     0.021 C 
ENDBRANCH   1  25
TORSDOF 4
ENDMDL
MODEL 5
REMARK VINA RESULT:    -7.400      3.000      5.620
REMARK INTER + INTRA:          -9.848
REMARK INTER:                  -9.218
REMARK INTRA:                  -0.630
REMARK UNBOUND:                -0.718
REMARK SMILES CCN(CC)C(=O)[C@@H]1C=C2c3cccc4[nH]cc(c34)C[C@H]2N(CC)C1
REMARK SMILES IDX 22 1 16 2 21 3 10 4 20 5 25 6 8 7 18 8 11 9 9 10 19 11 15 12
REMARK SMILES IDX 17 13 12 14 14 15 13 16 6 18 7 19 3 20 2 21 1 22 4 23 5 24
REMARK SMILES IDX 23 25 24 26
REMARK H PARENT 16 17
ROOT
ATOM      1  N   UNL     1     100.047 118.576 114.590  1.00  0.00    -0.295 NA
ATOM      2  N   UNL     1      95.689 122.670 113.682  1.00  0.00    -0.361 N 
ATOM      3  C   UNL     1      98.872 119.373 114.124  1.00  0.00     0.091 C 
ATOM      4  C   UNL     1      98.822 119.515 112.574  1.00  0.00    -0.026 C 
ATOM      5  C   UNL     1      98.649 120.765 114.839  1.00  0.00     0.061 C 
ATOM      6  C   UNL     1     101.263 118.960 113.854  1.00  0.00     0.102 C 
ATOM      7  C   UNL     1     101.127 118.600 112.359  1.00  0.00     0.116 C 
ATOM      8  C   UNL     1      97.469 121.459 114.237  1.00  0.00    -0.020 A 
ATOM      9  C   UNL     1      97.626 120.194 112.032  1.00  0.00    -0.011 A 
ATOM     10  C   UNL     1      99.843 119.147 111.779  1.00  0.00    -0.007 C 
ATOM     11  C   UNL     1      97.064 121.120 112.923  1.00  0.00     0.010 A 
ATOM     12  C   UNL     1      95.955 121.874 112.587  1.00  0.00     0.046 A 
ATOM     13  C   UNL     1      96.600 122.425 114.689  1.00  0.00     0.087 A 
ATOM     14  C   UNL     1      97.027 120.054 110.778  1.00  0.00     0.009 A 
ATOM     15  C   UNL     1      95.337 121.747 111.340  1.00  0.00     0.027 A 
ATOM     16  C   UNL     1      95.899 120.819 110.445  1.00  0.00     0.003 A 
ATOM     17  H   UNL     1      94.933 123.338 113.734  1.00  0.00     0.166 HD
ENDROOT
BRANCH   7  18
ATOM     18  C   UNL     1     102.363 119.149 111.618  1.00  0.00     0.230 C 
ATOM     19  O   UNL     1     102.673 120.341 111.709  1.00  0.00    -0.274 OA
ATOM     20  N   UNL     1     103.149 118.249 110.876  1.00  0.00    -0.343 N 
BRANCH  20  21
ATOM     21  C   UNL     1     102.665 116.919 110.473  1.00  0.00     0.116 C 
ATOM     22  C   UNL     1     103.605 115.762 110.776  1.00  0.00     0.027 C 
ENDBRANCH  20  21
BRANCH  20  23
ATOM     23  C   UNL     1     104.249 118.847 110.107  1.00  0.00     0.116 C 
ATOM     24  C   UNL     1     105.573 118.808 110.856  1.00  0.00     0.027 C 
ENDBRANCH  20  23
ENDBRANCH   7  18
BRANCH   1  25
ATOM     25  C   UNL     1     100.213 118.594 116.045  1.00  0.00     0.082 C 
ATOM     26  C   UNL     1      99.329 117.566 116.746  1.00  0.00     0.021 C 
ENDBRANCH   1  25
TORSDOF 4
ENDMDL
MODEL 6
REMARK VINA RESULT:    -7.244      2.272      4.506
REMARK INTER + INTRA:          -9.655
REMARK INTER:                  -9.309
REMARK INTRA:                  -0.346
REMARK UNBOUND:                -0.718
REMARK SMILES CCN(CC)C(=O)[C@@H]1C=C2c3cccc4[nH]cc(c34)C[C@H]2N(CC)C1
REMARK SMILES IDX 22 1 16 2 21 3 10 4 20 5 25 6 8 7 18 8 11 9 9 10 19 11 15 12
REMARK SMILES IDX 17 13 12 14 14 15 13 16 6 18 7 19 3 20 2 21 1 22 4 23 5 24
REMARK SMILES IDX 23 25 24 26
REMARK H PARENT 16 17
ROOT
ATOM      1  N   UNL     1     104.193 113.724 108.242  1.00  0.00    -0.295 NA
ATOM      2  N   UNL     1     104.947 119.479 109.943  1.00  0.00    -0.361 N 
ATOM      3  C   UNL     1     104.247 115.037 108.953  1.00  0.00     0.091 C 
ATOM      4  C   UNL     1     102.909 115.384 109.670  1.00  0.00    -0.026 C 
ATOM      5  C   UNL     1     104.784 116.262 108.112  1.00  0.00     0.061 C 
ATOM      6  C   UNL     1     102.920 113.572 107.520  1.00  0.00     0.102 C 
ATOM      7  C   UNL     1     101.738 113.516 108.512  1.00  0.00     0.116 C 
ATOM      8  C   UNL     1     104.736 117.506 108.941  1.00  0.00    -0.020 A 
ATOM      9  C   UNL     1     102.922 116.614 110.489  1.00  0.00    -0.011 A 
ATOM     10  C   UNL     1     101.779 114.679 109.478  1.00  0.00    -0.007 C 
ATOM     11  C   UNL     1     103.838 117.573 110.033  1.00  0.00     0.010 A 
ATOM     12  C   UNL     1     103.978 118.801 110.654  1.00  0.00     0.046 A 
ATOM     13  C   UNL     1     105.414 118.702 108.903  1.00  0.00     0.087 A 
ATOM     14  C   UNL     1     102.141 116.940 111.602  1.00  0.00     0.009 A 
ATOM     15  C   UNL     1     103.212 119.145 111.770  1.00  0.00     0.027 A 
ATOM     16  C   UNL     1     102.292 118.185 112.230  1.00  0.00     0.003 A 
ATOM     17  H   UNL     1     105.264 120.414 110.157  1.00  0.00     0.166 HD
ENDROOT
BRANCH   7  18
ATOM     18  C   UNL     1     100.429 113.500 107.700  1.00  0.00     0.230 C 
ATOM     19  O   UNL     1     100.424 113.818 106.506  1.00  0.00    -0.274 OA
ATOM     20  N   UNL     1      99.252 113.071 108.341  1.00  0.00    -0.343 N 
BRANCH  20  21
ATOM     21  C   UNL     1      99.131 112.993 109.806  1.00  0.00     0.116 C 
ATOM     22  C   UNL     1      98.098 113.923 110.426  1.00  0.00     0.027 C 
ENDBRANCH  20  21
BRANCH  20  23
ATOM     23  C   UNL     1      98.019 113.178 107.550  1.00  0.00     0.116 C 
ATOM     24  C   UNL     1      97.252 111.865 107.485  1.00  0.00     0.027 C 
ENDBRANCH  20  23
ENDBRANCH   7  18
BRANCH   1  25
ATOM     25  C   UNL     1     105.373 113.474 107.410  1.00  0.00     0.082 C 
ATOM     26  C   UNL     1     105.054 113.513 105.918  1.00  0.00     0.021 C 
ENDBRANCH   1  25
TORSDOF 4
ENDMDL
MODEL 7
REMARK VINA RESULT:    -7.240      2.825      6.970
REMARK INTER + INTRA:          -9.650
REMARK INTER:                  -8.968
REMARK INTRA:                  -0.683
REMARK UNBOUND:                -0.718
REMARK SMILES CCN(CC)C(=O)[C@@H]1C=C2c3cccc4[nH]cc(c34)C[C@H]2N(CC)C1
REMARK SMILES IDX 22 1 16 2 21 3 10 4 20 5 25 6 8 7 18 8 11 9 9 10 19 11 15 12
REMARK SMILES IDX 17 13 12 14 14 15 13 16 6 18 7 19 3 20 2 21 1 22 4 23 5 24
REMARK SMILES IDX 23 25 24 26
REMARK H PARENT 16 17
ROOT
ATOM      1  N   UNL     1     100.396 120.723 112.137  1.00  0.00    -0.295 NA
ATOM      2  N   UNL     1     105.547 118.181 110.243  1.00  0.00    -0.361 N 
ATOM      3  C   UNL     1     101.464 119.846 111.569  1.00  0.00     0.091 C 
ATOM      4  C   UNL     1     101.336 118.367 112.040  1.00  0.00    -0.026 C 
ATOM      5  C   UNL     1     102.947 120.371 111.717  1.00  0.00     0.061 C 
ATOM      6  C   UNL     1     100.181 120.429 113.563  1.00  0.00     0.102 C 
ATOM      7  C   UNL     1      99.633 118.997 113.743  1.00  0.00     0.116 C 
ATOM      8  C   UNL     1     103.899 119.369 111.145  1.00  0.00    -0.020 A 
ATOM      9  C   UNL     1     102.289 117.416 111.430  1.00  0.00    -0.011 A 
ATOM     10  C   UNL     1     100.491 117.987 113.015  1.00  0.00    -0.007 C 
ATOM     11  C   UNL     1     103.499 118.015 111.047  1.00  0.00     0.010 A 
ATOM     12  C   UNL     1     104.527 117.283 110.481  1.00  0.00     0.046 A 
ATOM     13  C   UNL     1     105.176 119.449 110.640  1.00  0.00     0.087 A 
ATOM     14  C   UNL     1     102.152 116.041 111.224  1.00  0.00     0.009 A 
ATOM     15  C   UNL     1     104.409 115.908 110.262  1.00  0.00     0.027 A 
ATOM     16  C   UNL     1     103.197 115.305 110.645  1.00  0.00     0.003 A 
ATOM     17  H   UNL     1     106.440 117.938 109.836  1.00  0.00     0.166 HD
ENDROOT
BRANCH   7  18
ATOM     18  C   UNL     1      99.562 118.696 115.253  1.00  0.00     0.230 C 
ATOM     19  O   UNL     1     100.586 118.443 115.894  1.00  0.00    -0.274 OA
ATOM     20  N   UNL     1      98.307 118.762 115.887  1.00  0.00    -0.343 N 
BRANCH  20  21
ATOM     21  C   UNL     1      97.039 118.738 115.140  1.00  0.00     0.116 C 
ATOM     22  C   UNL     1      96.304 120.069 115.058  1.00  0.00     0.027 C 
ENDBRANCH  20  21
BRANCH  20  23
ATOM     23  C   UNL     1      98.285 118.363 117.301  1.00  0.00     0.116 C 
ATOM     24  C   UNL     1      97.813 116.929 117.494  1.00  0.00     0.027 C 
ENDBRANCH  20  23
ENDBRANCH   7  18
BRANCH   1  25
ATOM     25  C   UNL     1     100.613 122.145 111.858  1.00  0.00     0.082 C 
ATOM     26  C   UNL     1     100.941 122.944 113.116  1.00  0.00     0.021 C 
ENDBRANCH   1  25
TORSDOF 4
ENDMDL
MODEL 8
REMARK VINA RESULT:    -7.238      3.000      6.704
REMARK INTER + INTRA:          -9.648
REMARK INTER:                  -8.992
REMARK INTRA:                  -0.656
REMARK UNBOUND:                -0.718
REMARK SMILES CCN(CC)C(=O)[C@@H]1C=C2c3cccc4[nH]cc(c34)C[C@H]2N(CC)C1
REMARK SMILES IDX 22 1 16 2 21 3 10 4 20 5 25 6 8 7 18 8 11 9 9 10 19 11 15 12
REMARK SMILES IDX 17 13 12 14 14 15 13 16 6 18 7 19 3 20 2 21 1 22 4 23 5 24
REMARK SMILES IDX 23 25 24 26
REMARK H PARENT 16 17
ROOT
ATOM      1  N   UNL     1     100.335 120.527 112.221  1.00  0.00    -0.295 NA
ATOM      2  N   UNL     1     105.636 118.627 110.012  1.00  0.00    -0.361 N 
ATOM      3  C   UNL     1     101.466 119.786 111.585  1.00  0.00     0.091 C 
ATOM      4  C   UNL     1     101.543 118.301 112.048  1.00  0.00    -0.026 C 
ATOM      5  C   UNL     1     102.882 120.485 111.653  1.00  0.00     0.061 C 
ATOM      6  C   UNL     1     100.240 120.206 113.654  1.00  0.00     0.102 C 
ATOM      7  C   UNL     1      99.879 118.718 113.852  1.00  0.00     0.116 C 
ATOM      8  C   UNL     1     103.912 119.606 111.018  1.00  0.00    -0.020 A 
ATOM      9  C   UNL     1     102.567 117.473 111.377  1.00  0.00    -0.011 A 
ATOM     10  C   UNL     1     100.808 117.820 113.067  1.00  0.00    -0.007 C 
ATOM     11  C   UNL     1     103.672 118.214 110.930  1.00  0.00     0.010 A 
ATOM     12  C   UNL     1     104.746 117.613 110.300  1.00  0.00     0.046 A 
ATOM     13  C   UNL     1     105.139 119.840 110.442  1.00  0.00     0.087 A 
ATOM     14  C   UNL     1     102.584 116.092 111.166  1.00  0.00     0.009 A 
ATOM     15  C   UNL     1     104.781 116.234 110.075  1.00  0.00     0.027 A 
ATOM     16  C   UNL     1     103.675 115.489 110.522  1.00  0.00     0.003 A 
ATOM     17  H   UNL     1     106.526 118.494 109.553  1.00  0.00     0.166 HD
ENDROOT
BRANCH   7  18
ATOM     18  C   UNL     1      99.931 118.407 115.361  1.00  0.00     0.230 C 
ATOM     19  O   UNL     1     100.792 118.923 116.080  1.00  0.00    -0.274 OA
ATOM     20  N   UNL     1      98.948 117.559 115.901  1.00  0.00    -0.343 N 
BRANCH  20  21
ATOM     21  C   UNL     1      98.115 116.678 115.066  1.00  0.00     0.116 C 
ATOM     22  C   UNL     1      98.221 115.192 115.377  1.00  0.00     0.027 C 
ENDBRANCH  20  21
BRANCH  20  23
ATOM     23  C   UNL     1      99.111 117.214 117.320  1.00  0.00     0.116 C 
ATOM     24  C   UNL     1      97.972 117.739 118.183  1.00  0.00     0.027 C 
ENDBRANCH  20  23
ENDBRANCH   7  18
BRANCH   1  25
ATOM     25  C   UNL     1     100.364 121.965 111.943  1.00  0.00     0.082 C 
ATOM     26  C   UNL     1     100.611 122.797 113.198  1.00  0.00     0.021 C 
ENDBRANCH   1  25
TORSDOF 4
ENDMDL
MODEL 9
REMARK VINA RESULT:    -7.223      1.567      1.971
REMARK INTER + INTRA:          -9.629
REMARK INTER:                  -9.278
REMARK INTRA:                  -0.351
REMARK UNBOUND:                -0.718
REMARK SMILES CCN(CC)C(=O)[C@@H]1C=C2c3cccc4[nH]cc(c34)C[C@H]2N(CC)C1
REMARK SMILES IDX 22 1 16 2 21 3 10 4 20 5 25 6 8 7 18 8 11 9 9 10 19 11 15 12
REMARK SMILES IDX 17 13 12 14 14 15 13 16 6 18 7 19 3 20 2 21 1 22 4 23 5 24
REMARK SMILES IDX 23 25 24 26
REMARK H PARENT 16 17
ROOT
ATOM      1  N   UNL     1     105.092 115.954 110.618  1.00  0.00    -0.295 NA
ATOM      2  N   UNL     1     103.259 121.616 111.699  1.00  0.00    -0.361 N 
ATOM      3  C   UNL     1     104.404 117.200 111.072  1.00  0.00     0.091 C 
ATOM      4  C   UNL     1     102.856 117.118 110.921  1.00  0.00    -0.026 C 
ATOM      5  C   UNL     1     104.969 118.557 110.493  1.00  0.00     0.061 C 
ATOM      6  C   UNL     1     104.509 115.465 109.358  1.00  0.00     0.102 C 
ATOM      7  C   UNL     1     103.042 115.034 109.572  1.00  0.00     0.116 C 
ATOM      8  C   UNL     1     104.154 119.703 111.002  1.00  0.00    -0.020 A 
ATOM      9  C   UNL     1     102.099 118.268 111.456  1.00  0.00    -0.011 A 
ATOM     10  C   UNL     1     102.245 116.123 110.252  1.00  0.00    -0.007 C 
ATOM     11  C   UNL     1     102.827 119.468 111.434  1.00  0.00     0.010 A 
ATOM     12  C   UNL     1     102.279 120.661 111.870  1.00  0.00     0.046 A 
ATOM     13  C   UNL     1     104.402 121.045 111.175  1.00  0.00     0.087 A 
ATOM     14  C   UNL     1     100.787 118.314 111.933  1.00  0.00     0.009 A 
ATOM     15  C   UNL     1     100.970 120.728 112.356  1.00  0.00     0.027 A 
ATOM     16  C   UNL     1     100.239 119.526 112.379  1.00  0.00     0.003 A 
ATOM     17  H   UNL     1     103.151 122.594 111.926  1.00  0.00     0.166 HD
ENDROOT
BRANCH   7  18
ATOM     18  C   UNL     1     102.444 114.667 108.199  1.00  0.00     0.230 C 
ATOM     19  O   UNL     1     102.547 115.439 107.241  1.00  0.00    -0.274 OA
ATOM     20  N   UNL     1     101.819 113.414 108.057  1.00  0.00    -0.343 N 
BRANCH  20  21
ATOM     21  C   UNL     1     101.387 112.609 109.212  1.00  0.00     0.116 C 
ATOM     22  C   UNL     1     100.115 113.083 109.899  1.00  0.00     0.027 C 
ENDBRANCH  20  21
BRANCH  20  23
ATOM     23  C   UNL     1     101.175 113.165 106.761  1.00  0.00     0.116 C 
ATOM     24  C   UNL     1      99.687 113.480 106.778  1.00  0.00     0.027 C 
ENDBRANCH  20  23
ENDBRANCH   7  18
BRANCH   1  25
ATOM     25  C   UNL     1     106.550 116.086 110.576  1.00  0.00     0.082 C 
ATOM     26  C   UNL     1     107.236 114.832 110.040  1.00  0.00     0.021 C 
ENDBRANCH   1  25
TORSDOF 4
ENDMDL
MODEL 10
REMARK VINA RESULT:    -7.101      4.181      7.158
REMARK INTER + INTRA:          -9.479
REMARK INTER:                  -8.874
REMARK INTRA:                  -0.606
REMARK UNBOUND:                -0.718
REMARK SMILES CCN(CC)C(=O)[C@@H]1C=C2c3cccc4[nH]cc(c34)C[C@H]2N(CC)C1
REMARK SMILES IDX 22 1 16 2 21 3 10 4 20 5 25 6 8 7 18 8 11 9 9 10 19 11 15 12
REMARK SMILES IDX 17 13 12 14 14 15 13 16 6 18 7 19 3 20 2 21 1 22 4 23 5 24
REMARK SMILES IDX 23 25 24 26
REMARK H PARENT 16 17
ROOT
ATOM      1  N   UNL     1      97.612 119.535 113.051  1.00  0.00    -0.295 NA
ATOM      2  N   UNL     1     102.830 122.341 111.834  1.00  0.00    -0.361 N 
ATOM      3  C   UNL     1      98.980 119.935 112.603  1.00  0.00     0.091 C 
ATOM      4  C   UNL     1     100.058 118.865 112.946  1.00  0.00    -0.026 C 
ATOM      5  C   UNL     1      99.452 121.384 113.021  1.00  0.00     0.061 C 
ATOM      6  C   UNL     1      97.654 118.951 114.402  1.00  0.00     0.102 C 
ATOM      7  C   UNL     1      98.454 117.631 114.395  1.00  0.00     0.116 C 
ATOM      8  C   UNL     1     100.849 121.619 112.540  1.00  0.00    -0.020 A 
ATOM      9  C   UNL     1     101.417 119.139 112.433  1.00  0.00    -0.011 A 
ATOM     10  C   UNL     1      99.807 117.813 113.747  1.00  0.00    -0.007 C 
ATOM     11  C   UNL     1     101.688 120.507 112.289  1.00  0.00     0.010 A 
ATOM     12  C   UNL     1     102.917 120.964 111.846  1.00  0.00     0.046 A 
ATOM     13  C   UNL     1     101.579 122.748 112.252  1.00  0.00     0.087 A 
ATOM     14  C   UNL     1     102.436 118.238 112.116  1.00  0.00     0.009 A 
ATOM     15  C   UNL     1     103.948 120.080 111.518  1.00  0.00     0.027 A 
ATOM     16  C   UNL     1     103.678 118.707 111.662  1.00  0.00     0.003 A 
ATOM     17  H   UNL     1     103.580 122.959 111.559  1.00  0.00     0.166 HD
ENDROOT
BRANCH   7  18
ATOM     18  C   UNL     1      98.585 117.141 115.851  1.00  0.00     0.230 C 
ATOM     19  O   UNL     1      99.426 117.634 116.608  1.00  0.00    -0.274 OA
ATOM     20  N   UNL     1      97.691 116.153 116.305  1.00  0.00    -0.343 N 
BRANCH  20  21
ATOM     21  C   UNL     1      96.902 115.316 115.386  1.00  0.00     0.116 C 
ATOM     22  C   UNL     1      95.410 115.253 115.680  1.00  0.00     0.027 C 
ENDBRANCH  20  21
BRANCH  20  23
ATOM     23  C   UNL     1      97.932 115.650 117.664  1.00  0.00     0.116 C 
ATOM     24  C   UNL     1      98.057 114.134 117.712  1.00  0.00     0.027 C 
ENDBRANCH  20  23
ENDBRANCH   7  18
BRANCH   1  25
ATOM     25  C   UNL     1      96.624 120.608 112.908  1.00  0.00     0.082 C 
ATOM     26  C   UNL     1      96.058 120.695 111.493  1.00  0.00     0.021 C 
ENDBRANCH   1  25
TORSDOF 4
ENDMDL
MODEL 11
REMARK VINA RESULT:    -7.003      0.993      1.205
REMARK INTER + INTRA:          -9.358
REMARK INTER:                  -8.887
REMARK INTRA:                  -0.471
REMARK UNBOUND:                -0.718
REMARK SMILES CCN(CC)C(=O)[C@@H]1C=C2c3cccc4[nH]cc(c34)C[C@H]2N(CC)C1
REMARK SMILES IDX 22 1 16 2 21 3 10 4 20 5 25 6 8 7 18 8 11 9 9 10 19 11 15 12
REMARK SMILES IDX 17 13 12 14 14 15 13 16 6 18 7 19 3 20 2 21 1 22 4 23 5 24
REMARK SMILES IDX 23 25 24 26
REMARK H PARENT 16 17
ROOT
ATOM      1  N   UNL     1     105.058 118.469 111.209  1.00  0.00    -0.295 NA
ATOM      2  N   UNL     1     100.824 122.501 112.759  1.00  0.00    -0.361 N 
ATOM      3  C   UNL     1     103.875 119.202 111.753  1.00  0.00     0.091 C 
ATOM      4  C   UNL     1     102.539 118.435 111.524  1.00  0.00    -0.026 C 
ATOM      5  C   UNL     1     103.746 120.721 111.336  1.00  0.00     0.061 C 
ATOM      6  C   UNL     1     104.760 117.907 109.882  1.00  0.00     0.102 C 
ATOM      7  C   UNL     1     103.659 116.829 109.986  1.00  0.00     0.116 C 
ATOM      8  C   UNL     1     102.496 121.301 111.918  1.00  0.00    -0.020 A 
ATOM      9  C   UNL     1     101.339 119.043 112.134  1.00  0.00    -0.011 A 
ATOM     10  C   UNL     1     102.452 117.349 110.733  1.00  0.00    -0.007 C 
ATOM     11  C   UNL     1     101.430 120.437 112.264  1.00  0.00     0.010 A 
ATOM     12  C   UNL     1     100.396 121.190 112.790  1.00  0.00     0.046 A 
ATOM     13  C   UNL     1     102.098 122.579 112.233  1.00  0.00     0.087 A 
ATOM     14  C   UNL     1     100.156 118.429 112.554  1.00  0.00     0.009 A 
ATOM     15  C   UNL     1      99.207 120.595 113.220  1.00  0.00     0.027 A 
ATOM     16  C   UNL     1      99.113 119.197 113.091  1.00  0.00     0.003 A 
ATOM     17  H   UNL     1     100.277 123.289 113.076  1.00  0.00     0.166 HD
ENDROOT
BRANCH   7  18
ATOM     18  C   UNL     1     103.291 116.380 108.558  1.00  0.00     0.230 C 
ATOM     19  O   UNL     1     102.519 117.051 107.866  1.00  0.00    -0.274 OA
ATOM     20  N   UNL     1     103.891 115.212 108.051  1.00  0.00    -0.343 N 
BRANCH  20  21
ATOM     21  C   UNL     1     104.547 114.219 108.916  1.00  0.00     0.116 C 
ATOM     22  C   UNL     1     105.962 114.567 109.354  1.00  0.00     0.027 C 
ENDBRANCH  20  21
BRANCH  20  23
ATOM     23  C   UNL     1     103.422 114.776 106.729  1.00  0.00     0.116 C 
ATOM     24  C   UNL     1     103.792 113.331 106.426  1.00  0.00     0.027 C 
ENDBRANCH  20  23
ENDBRANCH   7  18
BRANCH   1  25
ATOM     25  C   UNL     1     106.290 119.260 111.247  1.00  0.00     0.082 C 
ATOM     26  C   UNL     1     107.351 118.737 110.283  1.00  0.00     0.021 C 
ENDBRANCH   1  25
TORSDOF 4
ENDMDL
MODEL 12
REMARK VINA RESULT:    -6.931      5.862      9.627
REMARK INTER + INTRA:          -9.270
REMARK INTER:                  -8.674
REMARK INTRA:                  -0.596
REMARK UNBOUND:                -0.718
REMARK SMILES CCN(CC)C(=O)[C@@H]1C=C2c3cccc4[nH]cc(c34)C[C@H]2N(CC)C1
REMARK SMILES IDX 22 1 16 2 21 3 10 4 20 5 25 6 8 7 18 8 11 9 9 10 19 11 15 12
REMARK SMILES IDX 17 13 12 14 14 15 13 16 6 18 7 19 3 20 2 21 1 22 4 23 5 24
REMARK SMILES IDX 23 25 24 26
REMARK H PARENT 16 17
ROOT
ATOM      1  N   UNL     1      96.272 119.276 117.173  1.00  0.00    -0.295 NA
ATOM      2  N   UNL     1      93.533 113.895 116.820  1.00  0.00    -0.361 N 
ATOM      3  C   UNL     1      95.910 117.827 117.118  1.00  0.00     0.091 C 
ATOM      4  C   UNL     1      96.815 117.021 116.141  1.00  0.00    -0.026 C 
ATOM      5  C   UNL     1      94.380 117.502 116.890  1.00  0.00     0.061 C 
ATOM      6  C   UNL     1      96.534 119.800 115.823  1.00  0.00     0.102 C 
ATOM      7  C   UNL     1      97.776 119.120 115.209  1.00  0.00     0.116 C 
ATOM      8  C   UNL     1      94.184 116.021 116.815  1.00  0.00    -0.020 A 
ATOM      9  C   UNL     1      96.590 115.560 116.119  1.00  0.00    -0.011 A 
ATOM     10  C   UNL     1      97.671 117.613 115.289  1.00  0.00    -0.007 C 
ATOM     11  C   UNL     1      95.276 115.197 116.451  1.00  0.00     0.010 A 
ATOM     12  C   UNL     1      94.865 113.877 116.461  1.00  0.00     0.046 A 
ATOM     13  C   UNL     1      93.111 115.190 117.038  1.00  0.00     0.087 A 
ATOM     14  C   UNL     1      97.482 114.537 115.790  1.00  0.00     0.009 A 
ATOM     15  C   UNL     1      95.742 112.837 116.140  1.00  0.00     0.027 A 
ATOM     16  C   UNL     1      97.060 113.199 115.806  1.00  0.00     0.003 A 
ATOM     17  H   UNL     1      92.953 113.073 116.907  1.00  0.00     0.166 HD
ENDROOT
BRANCH   7  18
ATOM     18  C   UNL     1      97.917 119.601 113.751  1.00  0.00     0.230 C 
ATOM     19  O   UNL     1      96.918 119.857 113.073  1.00  0.00    -0.274 OA
ATOM     20  N   UNL     1      99.212 119.784 113.232  1.00  0.00    -0.343 N 
BRANCH  20  21
ATOM     21  C   UNL     1     100.408 119.202 113.863  1.00  0.00     0.116 C 
ATOM     22  C   UNL     1     101.493 118.738 112.902  1.00  0.00     0.027 C 
ENDBRANCH  20  21
BRANCH  20  23
ATOM     23  C   UNL     1      99.286 120.140 111.809  1.00  0.00     0.116 C 
ATOM     24  C   UNL     1      99.506 121.630 111.591  1.00  0.00     0.027 C 
ENDBRANCH  20  23
ENDBRANCH   7  18
BRANCH   1  25
ATOM     25  C   UNL     1      95.315 120.079 117.938  1.00  0.00     0.082 C 
ATOM     26  C   UNL     1      94.745 121.238 117.127  1.00  0.00     0.021 C 
ENDBRANCH   1  25
TORSDOF 4
ENDMDL
MODEL 13
REMARK VINA RESULT:    -6.930      5.662      9.301
REMARK INTER + INTRA:          -9.268
REMARK INTER:                  -9.372
REMARK INTRA:                   0.104
REMARK UNBOUND:                -0.718
REMARK SMILES CCN(CC)C(=O)[C@@H]1C=C2c3cccc4[nH]cc(c34)C[C@H]2N(CC)C1
REMARK SMILES IDX 22 1 16 2 21 3 10 4 20 5 25 6 8 7 18 8 11 9 9 10 19 11 15 12
REMARK SMILES IDX 17 13 12 14 14 15 13 16 6 18 7 19 3 20 2 21 1 22 4 23 5 24
REMARK SMILES IDX 23 25 24 26
REMARK H PARENT 16 17
ROOT
ATOM      1  N   UNL     1      96.865 119.109 117.699  1.00  0.00    -0.295 NA
ATOM      2  N   UNL     1      92.943 115.392 114.981  1.00  0.00    -0.361 N 
ATOM      3  C   UNL     1      96.075 117.950 117.182  1.00  0.00     0.091 C 
ATOM      4  C   UNL     1      96.979 116.814 116.621  1.00  0.00    -0.026 C 
ATOM      5  C   UNL     1      94.900 118.299 116.185  1.00  0.00     0.061 C 
ATOM      6  C   UNL     1      97.966 119.441 116.781  1.00  0.00     0.102 C 
ATOM      7  C   UNL     1      98.986 118.284 116.718  1.00  0.00     0.116 C 
ATOM      8  C   UNL     1      94.237 117.040 115.724  1.00  0.00    -0.020 A 
ATOM      9  C   UNL     1      96.274 115.586 116.196  1.00  0.00    -0.011 A 
ATOM     10  C   UNL     1      98.302 116.967 116.429  1.00  0.00    -0.007 C 
ATOM     11  C   UNL     1      94.957 115.823 115.773  1.00  0.00     0.010 A 
ATOM     12  C   UNL     1      94.145 114.802 115.314  1.00  0.00     0.046 A 
ATOM     13  C   UNL     1      92.988 116.749 115.228  1.00  0.00     0.087 A 
ATOM     14  C   UNL     1      96.748 114.273 116.138  1.00  0.00     0.009 A 
ATOM     15  C   UNL     1      94.598 113.482 115.251  1.00  0.00     0.027 A 
ATOM     16  C   UNL     1      95.917 113.242 115.676  1.00  0.00     0.003 A 
ATOM     17  H   UNL     1      92.146 114.896 114.608  1.00  0.00     0.166 HD
ENDROOT
BRANCH   7  18
ATOM     18  C   UNL     1     100.036 118.625 115.642  1.00  0.00     0.230 C 
ATOM     19  O   UNL     1     101.234 118.693 115.931  1.00  0.00    -0.274 OA
ATOM     20  N   UNL     1      99.597 118.812 114.319  1.00  0.00    -0.343 N 
BRANCH  20  21
ATOM     21  C   UNL     1      98.186 119.060 113.979  1.00  0.00     0.116 C 
ATOM     22  C   UNL     1      97.929 120.286 113.114  1.00  0.00     0.027 C 
ENDBRANCH  20  21
BRANCH  20  23
ATOM     23  C   UNL     1     100.624 119.240 113.360  1.00  0.00     0.116 C 
ATOM     24  C   UNL     1     100.909 118.185 112.301  1.00  0.00     0.027 C 
ENDBRANCH  20  23
ENDBRANCH   7  18
BRANCH   1  25
ATOM     25  C   UNL     1      96.030 120.260 118.053  1.00  0.00     0.082 C 
ATOM     26  C   UNL     1      96.592 121.575 117.521  1.00  0.00     0.021 C 
ENDBRANCH   1  25
TORSDOF 4
ENDMDL
MODEL 14
REMARK VINA RESULT:    -6.917      8.108     10.442
REMARK INTER + INTRA:          -9.252
REMARK INTER:                  -8.600
REMARK INTRA:                  -0.651
REMARK UNBOUND:                -0.718
REMARK SMILES CCN(CC)C(=O)[C@@H]1C=C2c3cccc4[nH]cc(c34)C[C@H]2N(CC)C1
REMARK SMILES IDX 22 1 16 2 21 3 10 4 20 5 25 6 8 7 18 8 11 9 9 10 19 11 15 12
REMARK SMILES IDX 17 13 12 14 14 15 13 16 6 18 7 19 3 20 2 21 1 22 4 23 5 24
REMARK SMILES IDX 23 25 24 26
REMARK H PARENT 16 17
ROOT
ATOM      1  N   UNL     1      92.842 117.888 117.159  1.00  0.00    -0.295 NA
ATOM      2  N   UNL     1      94.827 123.507 116.126  1.00  0.00    -0.361 N 
ATOM      3  C   UNL     1      93.308 119.184 116.580  1.00  0.00     0.091 C 
ATOM      4  C   UNL     1      94.392 118.992 115.478  1.00  0.00    -0.026 C 
ATOM      5  C   UNL     1      93.733 120.296 117.619  1.00  0.00     0.061 C 
ATOM      6  C   UNL     1      93.979 116.987 117.406  1.00  0.00     0.102 C 
ATOM      7  C   UNL     1      94.653 116.589 116.075  1.00  0.00     0.116 C 
ATOM      8  C   UNL     1      94.215 121.511 116.890  1.00  0.00    -0.020 A 
ATOM      9  C   UNL     1      94.819 120.222 114.779  1.00  0.00    -0.011 A 
ATOM     10  C   UNL     1      94.986 117.807 115.244  1.00  0.00    -0.007 C 
ATOM     11  C   UNL     1      94.698 121.376 115.567  1.00  0.00     0.010 A 
ATOM     12  C   UNL     1      95.073 122.622 115.097  1.00  0.00     0.046 A 
ATOM     13  C   UNL     1      94.305 122.844 117.218  1.00  0.00     0.087 A 
ATOM     14  C   UNL     1      95.338 120.367 113.490  1.00  0.00     0.009 A 
ATOM     15  C   UNL     1      95.589 122.791 113.810  1.00  0.00     0.027 A 
ATOM     16  C   UNL     1      95.711 121.635 113.018  1.00  0.00     0.003 A 
ATOM     17  H   UNL     1      95.007 124.500 116.083  1.00  0.00     0.166 HD
ENDROOT
BRANCH   7  18
ATOM     18  C   UNL     1      95.914 115.765 116.402  1.00  0.00     0.230 C 
ATOM     19  O   UNL     1      96.837 116.260 117.056  1.00  0.00    -0.274 OA
ATOM     20  N   UNL     1      95.965 114.425 115.975  1.00  0.00    -0.343 N 
BRANCH  20  21
ATOM     21  C   UNL     1      95.065 113.889 114.941  1.00  0.00     0.116 C 
ATOM     22  C   UNL     1      93.841 113.148 115.460  1.00  0.00     0.027 C 
ENDBRANCH  20  21
BRANCH  20  23
ATOM     23  C   UNL     1      97.231 113.724 116.222  1.00  0.00     0.116 C 
ATOM     24  C   UNL     1      98.214 113.872 115.070  1.00  0.00     0.027 C 
ENDBRANCH  20  23
ENDBRANCH   7  18
BRANCH   1  25
ATOM     25  C   UNL     1      91.968 118.060 118.322  1.00  0.00     0.082 C 
ATOM     26  C   UNL     1      92.257 117.047 119.425  1.00  0.00     0.021 C 
ENDBRANCH   1  25
TORSDOF 4
ENDMDL
MODEL 15
REMARK VINA RESULT:    -6.868      3.210      7.203
REMARK INTER + INTRA:          -9.192
REMARK INTER:                  -8.511
REMARK INTRA:                  -0.681
REMARK UNBOUND:                -0.718
REMARK SMILES CCN(CC)C(=O)[C@@H]1C=C2c3cccc4[nH]cc(c34)C[C@H]2N(CC)C1
REMARK SMILES IDX 22 1 16 2 21 3 10 4 20 5 25 6 8 7 18 8 11 9 9 10 19 11 15 12
REMARK SMILES IDX 17 13 12 14 14 15 13 16 6 18 7 19 3 20 2 21 1 22 4 23 5 24
REMARK SMILES IDX 23 25 24 26
REMARK H PARENT 16 17
ROOT
ATOM      1  N   UNL     1      99.832 120.169 112.273  1.00  0.00    -0.295 NA
ATOM      2  N   UNL     1     104.522 117.106 109.992  1.00  0.00    -0.361 N 
ATOM      3  C   UNL     1     100.759 119.174 111.654  1.00  0.00     0.091 C 
ATOM      4  C   UNL     1     100.586 117.745 112.249  1.00  0.00    -0.026 C 
ATOM      5  C   UNL     1     102.282 119.590 111.586  1.00  0.00     0.061 C 
ATOM      6  C   UNL     1      99.773 119.992 113.733  1.00  0.00     0.102 C 
ATOM      7  C   UNL     1      99.153 118.623 114.086  1.00  0.00     0.116 C 
ATOM      8  C   UNL     1     103.083 118.479 110.986  1.00  0.00    -0.020 A 
ATOM      9  C   UNL     1     101.388 116.683 111.608  1.00  0.00    -0.011 A 
ATOM     10  C   UNL     1      99.842 117.501 113.344  1.00  0.00    -0.007 C 
ATOM     11  C   UNL     1     102.581 117.157 111.040  1.00  0.00     0.010 A 
ATOM     12  C   UNL     1     103.479 116.310 110.417  1.00  0.00     0.046 A 
ATOM     13  C   UNL     1     104.292 118.424 110.331  1.00  0.00     0.087 A 
ATOM     14  C   UNL     1     101.131 115.312 111.527  1.00  0.00     0.009 A 
ATOM     15  C   UNL     1     103.238 114.936 110.320  1.00  0.00     0.027 A 
ATOM     16  C   UNL     1     102.044 114.459 110.888  1.00  0.00     0.003 A 
ATOM     17  H   UNL     1     105.339 116.766 109.503  1.00  0.00     0.166 HD
ENDROOT
BRANCH   7  18
ATOM     18  C   UNL     1      99.246 118.433 115.613  1.00  0.00     0.230 C 
ATOM     19  O   UNL     1     100.334 118.508 116.192  1.00  0.00    -0.274 OA
ATOM     20  N   UNL     1      98.056 118.218 116.332  1.00  0.00    -0.343 N 
BRANCH  20  21
ATOM     21  C   UNL     1      96.801 117.804 115.682  1.00  0.00     0.116 C 
ATOM     22  C   UNL     1      96.307 116.411 116.043  1.00  0.00     0.027 C 
ENDBRANCH  20  21
BRANCH  20  23
ATOM     23  C   UNL     1      98.217 117.938 117.765  1.00  0.00     0.116 C 
ATOM     24  C   UNL     1      97.229 118.712 118.626  1.00  0.00     0.027 C 
ENDBRANCH  20  23
ENDBRANCH   7  18
BRANCH   1  25
ATOM     25  C   UNL     1     100.112 121.547 111.861  1.00  0.00     0.082 C 
ATOM     26  C   UNL     1     100.435 122.456 113.044  1.00  0.00     0.021 C 
ENDBRANCH   1  25
TORSDOF 4
ENDMDL
MODEL 16
REMARK VINA RESULT:    -6.785      2.458      7.544
REMARK INTER + INTRA:          -9.090
REMARK INTER:                  -8.864
REMARK INTRA:                  -0.225
REMARK UNBOUND:                -0.718
REMARK SMILES CCN(CC)C(=O)[C@@H]1C=C2c3cccc4[nH]cc(c34)C[C@H]2N(CC)C1
REMARK SMILES IDX 22 1 16 2 21 3 10 4 20 5 25 6 8 7 18 8 11 9 9 10 19 11 15 12
REMARK SMILES IDX 17 13 12 14 14 15 13 16 6 18 7 19 3 20 2 21 1 22 4 23 5 24
REMARK SMILES IDX 23 25 24 26
REMARK H PARENT 16 17
ROOT
ATOM      1  N   UNL     1     101.678 114.630 111.342  1.00  0.00    -0.295 NA
ATOM      2  N   UNL     1     101.913 112.692 105.618  1.00  0.00    -0.361 N 
ATOM      3  C   UNL     1     102.065 114.117 109.993  1.00  0.00     0.091 C 
ATOM      4  C   UNL     1     103.314 114.845 109.413  1.00  0.00    -0.026 C 
ATOM      5  C   UNL     1     100.904 114.023 108.926  1.00  0.00     0.061 C 
ATOM      6  C   UNL     1     101.748 116.100 111.383  1.00  0.00     0.102 C 
ATOM      7  C   UNL     1     103.205 116.577 111.197  1.00  0.00     0.116 C 
ATOM      8  C   UNL     1     101.454 113.538 107.622  1.00  0.00    -0.020 A 
ATOM      9  C   UNL     1     103.825 114.314 108.132  1.00  0.00    -0.011 A 
ATOM     10  C   UNL     1     103.835 115.951 109.974  1.00  0.00    -0.007 C 
ATOM     11  C   UNL     1     102.831 113.714 107.345  1.00  0.00     0.010 A 
ATOM     12  C   UNL     1     103.109 113.182 106.099  1.00  0.00     0.046 A 
ATOM     13  C   UNL     1     100.903 112.902 106.534  1.00  0.00     0.087 A 
ATOM     14  C   UNL     1     105.122 114.362 107.614  1.00  0.00     0.009 A 
ATOM     15  C   UNL     1     104.400 113.214 105.564  1.00  0.00     0.027 A 
ATOM     16  C   UNL     1     105.399 113.815 106.351  1.00  0.00     0.003 A 
ATOM     17  H   UNL     1     101.798 112.245 104.719  1.00  0.00     0.166 HD
ENDROOT
BRANCH   7  18
ATOM     18  C   UNL     1     103.199 118.116 111.107  1.00  0.00     0.230 C 
ATOM     19  O   UNL     1     102.134 118.740 111.075  1.00  0.00    -0.274 OA
ATOM     20  N   UNL     1     104.435 118.788 111.107  1.00  0.00    -0.343 N 
BRANCH  20  21
ATOM     21  C   UNL     1     105.708 118.107 110.821  1.00  0.00     0.116 C 
ATOM     22  C   UNL     1     106.531 118.707 109.690  1.00  0.00     0.027 C 
ENDBRANCH  20  21
BRANCH  20  23
ATOM     23  C   UNL     1     104.370 120.243 110.911  1.00  0.00     0.116 C 
ATOM     24  C   UNL     1     104.693 121.017 112.181  1.00  0.00     0.027 C 
ENDBRANCH  20  23
ENDBRANCH   7  18
BRANCH   1  25
ATOM     25  C   UNL     1     100.401 114.092 111.816  1.00  0.00     0.082 C 
ATOM     26  C   UNL     1      99.432 115.186 112.256  1.00  0.00     0.021 C 
ENDBRANCH   1  25
TORSDOF 4
ENDMDL
MODEL 17
REMARK VINA RESULT:    -6.742      2.606      5.305
REMARK INTER + INTRA:          -9.037
REMARK INTER:                  -8.615
REMARK INTRA:                  -0.421
REMARK UNBOUND:                -0.718
REMARK SMILES CCN(CC)C(=O)[C@@H]1C=C2c3cccc4[nH]cc(c34)C[C@H]2N(CC)C1
REMARK SMILES IDX 22 1 16 2 21 3 10 4 20 5 25 6 8 7 18 8 11 9 9 10 19 11 15 12
REMARK SMILES IDX 17 13 12 14 14 15 13 16 6 18 7 19 3 20 2 21 1 22 4 23 5 24
REMARK SMILES IDX 23 25 24 26
REMARK H PARENT 16 17
ROOT
ATOM      1  N   UNL     1     100.883 121.165 112.892  1.00  0.00    -0.295 NA
ATOM      2  N   UNL     1      94.987 120.421 114.015  1.00  0.00    -0.361 N 
ATOM      3  C   UNL     1      99.538 120.827 113.448  1.00  0.00     0.091 C 
ATOM      4  C   UNL     1      99.440 119.346 113.919  1.00  0.00    -0.026 C 
ATOM      5  C   UNL     1      98.297 121.233 112.559  1.00  0.00     0.061 C 
ATOM      6  C   UNL     1     101.371 120.088 112.014  1.00  0.00     0.102 C 
ATOM      7  C   UNL     1     101.608 118.795 112.824  1.00  0.00     0.116 C 
ATOM      8  C   UNL     1      97.032 120.792 113.225  1.00  0.00    -0.020 A 
ATOM      9  C   UNL     1      98.176 118.968 114.585  1.00  0.00    -0.011 A 
ATOM     10  C   UNL     1     100.391 118.434 113.646  1.00  0.00    -0.007 C 
ATOM     11  C   UNL     1      97.078 119.731 114.160  1.00  0.00     0.010 A 
ATOM     12  C   UNL     1      95.803 119.509 114.650  1.00  0.00     0.046 A 
ATOM     13  C   UNL     1      95.722 121.206 113.149  1.00  0.00     0.087 A 
ATOM     14  C   UNL     1      97.943 117.964 115.528  1.00  0.00     0.009 A 
ATOM     15  C   UNL     1      95.549 118.513 115.597  1.00  0.00     0.027 A 
ATOM     16  C   UNL     1      96.649 117.748 116.025  1.00  0.00     0.003 A 
ATOM     17  H   UNL     1      93.991 120.499 114.164  1.00  0.00     0.166 HD
ENDROOT
BRANCH   7  18
ATOM     18  C   UNL     1     101.979 117.671 111.838  1.00  0.00     0.230 C 
ATOM     19  O   UNL     1     101.193 116.745 111.613  1.00  0.00    -0.274 OA
ATOM     20  N   UNL     1     103.214 117.753 111.168  1.00  0.00    -0.343 N 
BRANCH  20  21
ATOM     21  C   UNL     1     104.304 118.632 111.621  1.00  0.00     0.116 C 
ATOM     22  C   UNL     1     104.759 119.680 110.614  1.00  0.00     0.027 C 
ENDBRANCH  20  21
BRANCH  20  23
ATOM     23  C   UNL     1     103.560 116.602 110.323  1.00  0.00     0.116 C 
ATOM     24  C   UNL     1     103.287 116.858 108.848  1.00  0.00     0.027 C 
ENDBRANCH  20  23
ENDBRANCH   7  18
BRANCH   1  25
ATOM     25  C   UNL     1     100.932 122.492 112.274  1.00  0.00     0.082 C 
ATOM     26  C   UNL     1     102.210 123.251 112.620  1.00  0.00     0.021 C 
ENDBRANCH   1  25
TORSDOF 4
ENDMDL
MODEL 18
REMARK VINA RESULT:    -6.718      3.836      6.474
REMARK INTER + INTRA:          -9.007
REMARK INTER:                  -8.925
REMARK INTRA:                  -0.082
REMARK UNBOUND:                -0.718
REMARK SMILES CCN(CC)C(=O)[C@@H]1C=C2c3cccc4[nH]cc(c34)C[C@H]2N(CC)C1
REMARK SMILES IDX 22 1 16 2 21 3 10 4 20 5 25 6 8 7 18 8 11 9 9 10 19 11 15 12
REMARK SMILES IDX 17 13 12 14 14 15 13 16 6 18 7 19 3 20 2 21 1 22 4 23 5 24
REMARK SMILES IDX 23 25 24 26
REMARK H PARENT 16 17
ROOT
ATOM      1  N   UNL     1      99.801 118.453 114.707  1.00  0.00    -0.295 NA
ATOM      2  N   UNL     1      95.645 122.734 113.714  1.00  0.00    -0.361 N 
ATOM      3  C   UNL     1      98.673 119.301 114.216  1.00  0.00     0.091 C 
ATOM      4  C   UNL     1      98.670 119.454 112.666  1.00  0.00    -0.026 C 
ATOM      5  C   UNL     1      98.491 120.697 114.933  1.00  0.00     0.061 C 
ATOM      6  C   UNL     1     101.051 118.788 114.005  1.00  0.00     0.102 C 
ATOM      7  C   UNL     1     100.939 118.442 112.505  1.00  0.00     0.116 C 
ATOM      8  C   UNL     1      97.357 121.444 114.306  1.00  0.00    -0.020 A 
ATOM      9  C   UNL     1      97.518 120.185 112.098  1.00  0.00    -0.011 A 
ATOM     10  C   UNL     1      99.694 119.046 111.895  1.00  0.00    -0.007 C 
ATOM     11  C   UNL     1      96.973 121.130 112.981  1.00  0.00     0.010 A 
ATOM     12  C   UNL     1      95.906 121.933 112.621  1.00  0.00     0.046 A 
ATOM     13  C   UNL     1      96.519 122.444 114.742  1.00  0.00     0.087 A 
ATOM     14  C   UNL     1      96.946 120.078 110.828  1.00  0.00     0.009 A 
ATOM     15  C   UNL     1      95.316 121.838 111.358  1.00  0.00     0.027 A 
ATOM     16  C   UNL     1      95.860 120.892 110.471  1.00  0.00     0.003 A 
ATOM     17  H   UNL     1      94.917 123.433 113.750  1.00  0.00     0.166 HD
ENDROOT
BRANCH   7  18
ATOM     18  C   UNL     1     102.215 118.942 111.799  1.00  0.00     0.230 C 
ATOM     19  O   UNL     1     102.985 118.146 111.253  1.00  0.00    -0.274 OA
ATOM     20  N   UNL     1     102.453 120.328 111.755  1.00  0.00    -0.343 N 
BRANCH  20  21
ATOM     21  C   UNL     1     101.763 121.279 112.643  1.00  0.00     0.116 C 
ATOM     22  C   UNL     1     101.038 122.418 111.941  1.00  0.00     0.027 C 
ENDBRANCH  20  21
BRANCH  20  23
ATOM     23  C   UNL     1     103.734 120.738 111.165  1.00  0.00     0.116 C 
ATOM     24  C   UNL     1     104.631 121.458 112.161  1.00  0.00     0.027 C 
ENDBRANCH  20  23
ENDBRANCH   7  18
BRANCH   1  25
ATOM     25  C   UNL     1      99.929 118.456 116.166  1.00  0.00     0.082 C 
ATOM     26  C   UNL     1      99.180 117.298 116.820  1.00  0.00     0.021 C 
ENDBRANCH   1  25
TORSDOF 4
ENDMDL
MODEL 19
REMARK VINA RESULT:    -6.713      7.194     11.322
REMARK INTER + INTRA:          -9.000
REMARK INTER:                  -8.289
REMARK INTRA:                  -0.711
REMARK UNBOUND:                -0.718
REMARK SMILES CCN(CC)C(=O)[C@@H]1C=C2c3cccc4[nH]cc(c34)C[C@H]2N(CC)C1
REMARK SMILES IDX 22 1 16 2 21 3 10 4 20 5 25 6 8 7 18 8 11 9 9 10 19 11 15 12
REMARK SMILES IDX 17 13 12 14 14 15 13 16 6 18 7 19 3 20 2 21 1 22 4 23 5 24
REMARK SMILES IDX 23 25 24 26
REMARK H PARENT 16 17
ROOT
ATOM      1  N   UNL     1      97.937 118.493 116.273  1.00  0.00    -0.295 NA
ATOM      2  N   UNL     1      96.045 112.763 116.688  1.00  0.00    -0.361 N 
ATOM      3  C   UNL     1      97.256 117.170 116.131  1.00  0.00     0.091 C 
ATOM      4  C   UNL     1      95.704 117.296 116.106  1.00  0.00    -0.026 C 
ATOM      5  C   UNL     1      97.728 116.035 117.124  1.00  0.00     0.061 C 
ATOM      6  C   UNL     1      97.258 119.324 117.280  1.00  0.00     0.102 C 
ATOM      7  C   UNL     1      95.829 119.679 116.814  1.00  0.00     0.116 C 
ATOM      8  C   UNL     1      96.928 114.793 116.890  1.00  0.00    -0.020 A 
ATOM      9  C   UNL     1      94.965 116.041 115.854  1.00  0.00    -0.011 A 
ATOM     10  C   UNL     1      95.065 118.442 116.402  1.00  0.00    -0.007 C 
ATOM     11  C   UNL     1      95.652 114.897 116.286  1.00  0.00     0.010 A 
ATOM     12  C   UNL     1      95.111 113.630 116.160  1.00  0.00     0.046 A 
ATOM     13  C   UNL     1      97.152 113.458 117.132  1.00  0.00     0.087 A 
ATOM     14  C   UNL     1      93.700 115.863 115.288  1.00  0.00     0.009 A 
ATOM     15  C   UNL     1      93.850 113.429 115.592  1.00  0.00     0.027 A 
ATOM     16  C   UNL     1      93.159 114.575 115.158  1.00  0.00     0.003 A 
ATOM     17  H   UNL     1      95.929 111.761 116.742  1.00  0.00     0.166 HD
ENDROOT
BRANCH   7  18
ATOM     18  C   UNL     1      95.122 120.426 117.962  1.00  0.00     0.230 C 
ATOM     19  O   UNL     1      95.004 119.904 119.075  1.00  0.00    -0.274 OA
ATOM     20  N   UNL     1      94.656 121.732 117.721  1.00  0.00    -0.343 N 
BRANCH  20  21
ATOM     21  C   UNL     1      94.480 122.271 116.362  1.00  0.00     0.116 C 
ATOM     22  C   UNL     1      93.099 122.070 115.754  1.00  0.00     0.027 C 
ENDBRANCH  20  21
BRANCH  20  23
ATOM     23  C   UNL     1      93.897 122.352 118.815  1.00  0.00     0.116 C 
ATOM     24  C   UNL     1      94.096 123.859 118.882  1.00  0.00     0.027 C 
ENDBRANCH  20  23
ENDBRANCH   7  18
BRANCH   1  25
ATOM     25  C   UNL     1      99.381 118.375 116.487  1.00  0.00     0.082 C 
ATOM     26  C   UNL     1     100.188 118.736 115.243  1.00  0.00     0.021 C 
ENDBRANCH   1  25
TORSDOF 4
ENDMDL
MODEL 20
REMARK VINA RESULT:    -6.574      5.177      8.534
REMARK INTER + INTRA:          -8.829
REMARK INTER:                  -8.121
REMARK INTRA:                  -0.708
REMARK UNBOUND:                -0.718
REMARK SMILES CCN(CC)C(=O)[C@@H]1C=C2c3cccc4[nH]cc(c34)C[C@H]2N(CC)C1
REMARK SMILES IDX 22 1 16 2 21 3 10 4 20 5 25 6 8 7 18 8 11 9 9 10 19 11 15 12
REMARK SMILES IDX 17 13 12 14 14 15 13 16 6 18 7 19 3 20 2 21 1 22 4 23 5 24
REMARK SMILES IDX 23 25 24 26
REMARK H PARENT 16 17
ROOT
ATOM      1  N   UNL     1      97.998 117.300 115.168  1.00  0.00    -0.295 NA
ATOM      2  N   UNL     1      93.887 119.612 118.955  1.00  0.00    -0.361 N 
ATOM      3  C   UNL     1      96.812 117.935 115.819  1.00  0.00     0.091 C 
ATOM      4  C   UNL     1      96.402 119.275 115.139  1.00  0.00    -0.026 C 
ATOM      5  C   UNL     1      96.878 118.082 117.391  1.00  0.00     0.061 C 
ATOM      6  C   UNL     1      99.028 118.307 114.863  1.00  0.00     0.102 C 
ATOM      7  C   UNL     1      98.508 119.311 113.812  1.00  0.00     0.116 C 
ATOM      8  C   UNL     1      95.646 118.771 117.886  1.00  0.00    -0.020 A 
ATOM      9  C   UNL     1      95.169 119.904 115.656  1.00  0.00    -0.011 A 
ATOM     10  C   UNL     1      97.170 119.885 114.217  1.00  0.00    -0.007 C 
ATOM     11  C   UNL     1      94.913 119.596 117.001  1.00  0.00     0.010 A 
ATOM     12  C   UNL     1      93.818 120.111 117.671  1.00  0.00     0.046 A 
ATOM     13  C   UNL     1      94.992 118.796 119.096  1.00  0.00     0.087 A 
ATOM     14  C   UNL     1      94.277 120.759 115.005  1.00  0.00     0.009 A 
ATOM     15  C   UNL     1      92.911 120.964 117.037  1.00  0.00     0.027 A 
ATOM     16  C   UNL     1      93.165 121.275 115.689  1.00  0.00     0.003 A 
ATOM     17  H   UNL     1      93.221 119.818 119.686  1.00  0.00     0.166 HD
ENDROOT
BRANCH   7  18
ATOM     18  C   UNL     1      99.569 120.416 113.638  1.00  0.00     0.230 C 
ATOM     19  O   UNL     1      99.809 121.208 114.555  1.00  0.00    -0.274 OA
ATOM     20  N   UNL     1     100.285 120.469 112.428  1.00  0.00    -0.343 N 
BRANCH  20  21
ATOM     21  C   UNL     1      99.832 119.779 111.209  1.00  0.00     0.116 C 
ATOM     22  C   UNL     1      98.824 120.543 110.362  1.00  0.00     0.027 C 
ENDBRANCH  20  21
BRANCH  20  23
ATOM     23  C   UNL     1     101.204 121.605 112.278  1.00  0.00     0.116 C 
ATOM     24  C   UNL     1     102.629 121.167 111.973  1.00  0.00     0.027 C 
ENDBRANCH  20  23
ENDBRANCH   7  18
BRANCH   1  25
ATOM     25  C   UNL     1      98.509 116.144 115.908  1.00  0.00     0.082 C 
ATOM     26  C   UNL     1      97.979 114.821 115.364  1.00  0.00     0.021 C 
ENDBRANCH   1  25
TORSDOF 4
ENDMDL
