MODEL 1
REMARK VINA RESULT:    -8.798      0.000      0.000
REMARK INTER + INTRA:         -11.435
REMARK INTER:                 -10.855
REMARK INTRA:                  -0.579
REMARK UNBOUND:                -0.579
REMARK SMILES CCN(CC)C(=O)[C@@H]1C=C2c3cccc4[nH]cc(c34)C[C@H]2N(CC)C1
REMARK SMILES IDX 22 1 16 2 21 3 10 4 20 5 25 6 8 7 18 8 11 9 9 10 19 11 15 12
REMARK SMILES IDX 17 13 12 14 14 15 13 16 6 18 7 19 3 20 2 21 1 22 4 23 5 24
REMARK SMILES IDX 23 25 24 26
REMARK H PARENT 16 17
ROOT
ATOM      1  N   UNL     1     -11.756 -18.506  23.396  1.00  0.00    -0.295 NA
ATOM      2  N   UNL     1      -7.245 -21.819  25.688  1.00  0.00    -0.361 N 
ATOM      3  C   UNL     1     -10.447 -19.089  23.819  1.00  0.00     0.091 C 
ATOM      4  C   UNL     1      -9.423 -19.172  22.648  1.00  0.00    -0.026 C 
ATOM      5  C   UNL     1     -10.518 -20.450  24.619  1.00  0.00     0.061 C 
ATOM      6  C   UNL     1     -12.178 -19.055  22.098  1.00  0.00     0.102 C 
ATOM      7  C   UNL     1     -11.195 -18.630  20.985  1.00  0.00     0.116 C 
ATOM      8  C   UNL     1      -9.135 -20.926  24.931  1.00  0.00    -0.020 A 
ATOM      9  C   UNL     1      -8.068 -19.632  23.014  1.00  0.00    -0.011 A 
ATOM     10  C   UNL     1      -9.767 -18.946  21.367  1.00  0.00    -0.007 C 
ATOM     11  C   UNL     1      -8.056 -20.486  24.128  1.00  0.00     0.010 A 
ATOM     12  C   UNL     1      -6.883 -21.042  24.608  1.00  0.00     0.046 A 
ATOM     13  C   UNL     1      -8.608 -21.756  25.893  1.00  0.00     0.087 A 
ATOM     14  C   UNL     1      -6.847 -19.359  22.393  1.00  0.00     0.009 A 
ATOM     15  C   UNL     1      -5.651 -20.777  24.005  1.00  0.00     0.027 A 
ATOM     16  C   UNL     1      -5.660 -19.922  22.888  1.00  0.00     0.003 A 
ATOM     17  H   UNL     1      -6.599 -22.360  26.246  1.00  0.00     0.166 HD
ENDROOT
BRANCH   7  18
ATOM     18  C   UNL     1     -11.605 -19.345  19.683  1.00  0.00     0.230 C 
ATOM     19  O   UNL     1     -11.353 -20.542  19.516  1.00  0.00    -0.274 OA
ATOM     20  N   UNL     1     -12.312 -18.611  18.713  1.00  0.00    -0.343 N 
BRANCH  20  21
ATOM     21  C   UNL     1     -12.357 -17.139  18.710  1.00  0.00     0.116 C 
ATOM     22  C   UNL     1     -13.505 -16.520  19.495  1.00  0.00     0.027 C 
ENDBRANCH  20  21
BRANCH  20  23
ATOM     23  C   UNL     1     -12.582 -19.313  17.451  1.00  0.00     0.116 C 
ATOM     24  C   UNL     1     -13.968 -19.012  16.900  1.00  0.00     0.027 C 
ENDBRANCH  20  23
ENDBRANCH   7  18
BRANCH   1  25
ATOM     25  C   UNL     1     -12.786 -18.597  24.434  1.00  0.00     0.082 C 
ATOM     26  C   UNL     1     -13.986 -17.698  24.146  1.00  0.00     0.021 C 
ENDBRANCH   1  25
TORSDOF 4
ENDMDL
MODEL 2
REMARK VINA RESULT:    -8.726      2.195      4.022
REMARK INTER + INTRA:         -11.346
REMARK INTER:                 -10.732
REMARK INTRA:                  -0.614
REMARK UNBOUND:                -0.579
REMARK SMILES CCN(CC)C(=O)[C@@H]1C=C2c3cccc4[nH]cc(c34)C[C@H]2N(CC)C1
REMARK SMILES IDX 22 1 16 2 21 3 10 4 20 5 25 6 8 7 18 8 11 9 9 10 19 11 15 12
REMARK SMILES IDX 17 13 12 14 14 15 13 16 6 18 7 19 3 20 2 21 1 22 4 23 5 24
REMARK SMILES IDX 23 25 24 26
REMARK H PARENT 16 17
ROOT
ATOM      1  N   UNL     1     -11.463 -20.111  20.206  1.00  0.00    -0.295 NA
ATOM      2  N   UNL     1      -6.153 -20.335  23.094  1.00  0.00    -0.361 N 
ATOM      3  C   UNL     1     -10.328 -20.336  21.151  1.00  0.00     0.091 C 
ATOM      4  C   UNL     1     -10.698 -19.990  22.624  1.00  0.00    -0.026 C 
ATOM      5  C   UNL     1      -8.943 -19.697  20.739  1.00  0.00     0.061 C 
ATOM      6  C   UNL     1     -12.149 -18.844  20.505  1.00  0.00     0.102 C 
ATOM      7  C   UNL     1     -12.817 -18.906  21.895  1.00  0.00     0.116 C 
ATOM      8  C   UNL     1      -7.924 -19.969  21.800  1.00  0.00    -0.020 A 
ATOM      9  C   UNL     1      -9.662 -20.295  23.633  1.00  0.00    -0.011 A 
ATOM     10  C   UNL     1     -11.837 -19.356  22.955  1.00  0.00    -0.007 C 
ATOM     11  C   UNL     1      -8.358 -20.244  23.119  1.00  0.00     0.010 A 
ATOM     12  C   UNL     1      -7.251 -20.474  23.916  1.00  0.00     0.046 A 
ATOM     13  C   UNL     1      -6.550 -20.030  21.807  1.00  0.00     0.087 A 
ATOM     14  C   UNL     1      -9.814 -20.587  24.991  1.00  0.00     0.009 A 
ATOM     15  C   UNL     1      -7.381 -20.773  25.275  1.00  0.00     0.027 A 
ATOM     16  C   UNL     1      -8.688 -20.826  25.793  1.00  0.00     0.003 A 
ATOM     17  H   UNL     1      -5.194 -20.441  23.395  1.00  0.00     0.166 HD
ENDROOT
BRANCH   7  18
ATOM     18  C   UNL     1     -13.395 -17.513  22.213  1.00  0.00     0.230 C 
ATOM     19  O   UNL     1     -12.740 -16.692  22.863  1.00  0.00    -0.274 OA
ATOM     20  N   UNL     1     -14.667 -17.187  21.706  1.00  0.00    -0.343 N 
BRANCH  20  21
ATOM     21  C   UNL     1     -15.610 -18.206  21.216  1.00  0.00     0.116 C 
ATOM     22  C   UNL     1     -16.754 -18.544  22.160  1.00  0.00     0.027 C 
ENDBRANCH  20  21
BRANCH  20  23
ATOM     23  C   UNL     1     -15.210 -15.889  22.130  1.00  0.00     0.116 C 
ATOM     24  C   UNL     1     -15.925 -15.159  21.002  1.00  0.00     0.027 C 
ENDBRANCH  20  23
ENDBRANCH   7  18
BRANCH   1  25
ATOM     25  C   UNL     1     -11.075 -20.250  18.800  1.00  0.00     0.082 C 
ATOM     26  C   UNL     1     -12.106 -19.650  17.848  1.00  0.00     0.021 C 
ENDBRANCH   1  25
TORSDOF 4
ENDMDL
MODEL 3
REMARK VINA RESULT:    -8.402      1.886      7.077
REMARK INTER + INTRA:         -10.946
REMARK INTER:                 -10.517
REMARK INTRA:                  -0.429
REMARK UNBOUND:                -0.579
REMARK SMILES CCN(CC)C(=O)[C@@H]1C=C2c3cccc4[nH]cc(c34)C[C@H]2N(CC)C1
REMARK SMILES IDX 22 1 16 2 21 3 10 4 20 5 25 6 8 7 18 8 11 9 9 10 19 11 15 12
REMARK SMILES IDX 17 13 12 14 14 15 13 16 6 18 7 19 3 20 2 21 1 22 4 23 5 24
REMARK SMILES IDX 23 25 24 26
REMARK H PARENT 16 17
ROOT
ATOM      1  N   UNL     1     -13.452 -18.287  23.035  1.00  0.00    -0.295 NA
ATOM      2  N   UNL     1     -13.509 -15.523  17.656  1.00  0.00    -0.361 N 
ATOM      3  C   UNL     1     -13.485 -17.919  21.587  1.00  0.00     0.091 C 
ATOM      4  C   UNL     1     -12.494 -18.763  20.733  1.00  0.00    -0.026 C 
ATOM      5  C   UNL     1     -13.363 -16.378  21.258  1.00  0.00     0.061 C 
ATOM      6  C   UNL     1     -12.066 -18.468  23.497  1.00  0.00     0.102 C 
ATOM      7  C   UNL     1     -11.412 -19.671  22.783  1.00  0.00     0.116 C 
ATOM      8  C   UNL     1     -13.368 -16.176  19.776  1.00  0.00    -0.020 A 
ATOM      9  C   UNL     1     -12.552 -18.535  19.274  1.00  0.00    -0.011 A 
ATOM     10  C   UNL     1     -11.566 -19.568  21.283  1.00  0.00    -0.007 C 
ATOM     11  C   UNL     1     -12.978 -17.243  18.933  1.00  0.00     0.010 A 
ATOM     12  C   UNL     1     -13.073 -16.831  17.616  1.00  0.00     0.046 A 
ATOM     13  C   UNL     1     -13.692 -15.116  18.962  1.00  0.00     0.087 A 
ATOM     14  C   UNL     1     -12.218 -19.405  18.233  1.00  0.00     0.009 A 
ATOM     15  C   UNL     1     -12.749 -17.686  16.559  1.00  0.00     0.027 A 
ATOM     16  C   UNL     1     -12.321 -18.982  16.899  1.00  0.00     0.003 A 
ATOM     17  H   UNL     1     -13.668 -14.947  16.841  1.00  0.00     0.166 HD
ENDROOT
BRANCH   7  18
ATOM     18  C   UNL     1      -9.928 -19.726  23.197  1.00  0.00     0.230 C 
ATOM     19  O   UNL     1      -9.075 -19.089  22.571  1.00  0.00    -0.274 OA
ATOM     20  N   UNL     1      -9.580 -20.483  24.331  1.00  0.00    -0.343 N 
BRANCH  20  21
ATOM     21  C   UNL     1     -10.474 -21.499  24.910  1.00  0.00     0.116 C 
ATOM     22  C   UNL     1     -11.539 -20.967  25.859  1.00  0.00     0.027 C 
ENDBRANCH  20  21
BRANCH  20  23
ATOM     23  C   UNL     1      -8.142 -20.585  24.614  1.00  0.00     0.116 C 
ATOM     24  C   UNL     1      -7.845 -21.463  25.821  1.00  0.00     0.027 C 
ENDBRANCH  20  23
ENDBRANCH   7  18
BRANCH   1  25
ATOM     25  C   UNL     1     -14.235 -17.378  23.876  1.00  0.00     0.082 C 
ATOM     26  C   UNL     1     -14.424 -17.911  25.294  1.00  0.00     0.021 C 
ENDBRANCH   1  25
TORSDOF 4
ENDMDL
MODEL 4
REMARK VINA RESULT:    -8.350      2.250      5.167
REMARK INTER + INTRA:         -10.882
REMARK INTER:                 -10.624
REMARK INTRA:                  -0.258
REMARK UNBOUND:                -0.579
REMARK SMILES CCN(CC)C(=O)[C@@H]1C=C2c3cccc4[nH]cc(c34)C[C@H]2N(CC)C1
REMARK SMILES IDX 22 1 16 2 21 3 10 4 20 5 25 6 8 7 18 8 11 9 9 10 19 11 15 12
REMARK SMILES IDX 17 13 12 14 14 15 13 16 6 18 7 19 3 20 2 21 1 22 4 23 5 24
REMARK SMILES IDX 23 25 24 26
REMARK H PARENT 16 17
ROOT
ATOM      1  N   UNL     1     -11.524 -19.743  21.122  1.00  0.00    -0.295 NA
ATOM      2  N   UNL     1      -5.554 -19.015  21.761  1.00  0.00    -0.361 N 
ATOM      3  C   UNL     1     -10.075 -19.840  21.472  1.00  0.00     0.091 C 
ATOM      4  C   UNL     1      -9.841 -20.065  22.995  1.00  0.00    -0.026 C 
ATOM      5  C   UNL     1      -9.146 -18.692  20.909  1.00  0.00     0.061 C 
ATOM      6  C   UNL     1     -12.243 -18.911  22.100  1.00  0.00     0.102 C 
ATOM      7  C   UNL     1     -12.231 -19.579  23.492  1.00  0.00     0.116 C 
ATOM      8  C   UNL     1      -7.741 -18.902  21.378  1.00  0.00    -0.020 A 
ATOM      9  C   UNL     1      -8.436 -20.284  23.401  1.00  0.00    -0.011 A 
ATOM     10  C   UNL     1     -10.827 -19.961  23.904  1.00  0.00    -0.007 C 
ATOM     11  C   UNL     1      -7.511 -19.664  22.548  1.00  0.00     0.010 A 
ATOM     12  C   UNL     1      -6.148 -19.733  22.777  1.00  0.00     0.046 A 
ATOM     13  C   UNL     1      -6.511 -18.507  20.906  1.00  0.00     0.087 A 
ATOM     14  C   UNL     1      -7.937 -20.980  24.504  1.00  0.00     0.009 A 
ATOM     15  C   UNL     1      -5.628 -20.428  23.872  1.00  0.00     0.027 A 
ATOM     16  C   UNL     1      -6.554 -21.051  24.728  1.00  0.00     0.003 A 
ATOM     17  H   UNL     1      -4.558 -18.880  21.662  1.00  0.00     0.166 HD
ENDROOT
BRANCH   7  18
ATOM     18  C   UNL     1     -12.870 -18.603  24.500  1.00  0.00     0.230 C 
ATOM     19  O   UNL     1     -13.064 -17.422  24.196  1.00  0.00    -0.274 OA
ATOM     20  N   UNL     1     -13.267 -19.103  25.753  1.00  0.00    -0.343 N 
BRANCH  20  21
ATOM     21  C   UNL     1     -12.782 -20.388  26.283  1.00  0.00     0.116 C 
ATOM     22  C   UNL     1     -13.864 -21.378  26.690  1.00  0.00     0.027 C 
ENDBRANCH  20  21
BRANCH  20  23
ATOM     23  C   UNL     1     -13.771 -18.108  26.708  1.00  0.00     0.116 C 
ATOM     24  C   UNL     1     -15.291 -18.077  26.772  1.00  0.00     0.027 C 
ENDBRANCH  20  23
ENDBRANCH   7  18
BRANCH   1  25
ATOM     25  C   UNL     1     -11.754 -19.344  19.732  1.00  0.00     0.082 C 
ATOM     26  C   UNL     1     -11.522 -20.489  18.750  1.00  0.00     0.021 C 
ENDBRANCH   1  25
TORSDOF 4
ENDMDL
MODEL 5
REMARK VINA RESULT:    -8.240      2.423      7.642
REMARK INTER + INTRA:         -10.746
REMARK INTER:                 -10.662
REMARK INTRA:                  -0.084
REMARK UNBOUND:                -0.579
REMARK SMILES CCN(CC)C(=O)[C@@H]1C=C2c3cccc4[nH]cc(c34)C[C@H]2N(CC)C1
REMARK SMILES IDX 22 1 16 2 21 3 10 4 20 5 25 6 8 7 18 8 11 9 9 10 19 11 15 12
REMARK SMILES IDX 17 13 12 14 14 15 13 16 6 18 7 19 3 20 2 21 1 22 4 23 5 24
REMARK SMILES IDX 23 25 24 26
REMARK H PARENT 16 17
ROOT
ATOM      1  N   UNL     1     -13.221 -18.352  20.715  1.00  0.00    -0.295 NA
ATOM      2  N   UNL     1     -13.721 -14.079  16.463  1.00  0.00    -0.361 N 
ATOM      3  C   UNL     1     -13.282 -17.552  19.454  1.00  0.00     0.091 C 
ATOM      4  C   UNL     1     -12.080 -17.838  18.506  1.00  0.00    -0.026 C 
ATOM      5  C   UNL     1     -13.524 -16.000  19.626  1.00  0.00     0.061 C 
ATOM      6  C   UNL     1     -11.853 -18.368  21.258  1.00  0.00     0.102 C 
ATOM      7  C   UNL     1     -10.897 -19.103  20.294  1.00  0.00     0.116 C 
ATOM      8  C   UNL     1     -13.515 -15.335  18.286  1.00  0.00    -0.020 A 
ATOM      9  C   UNL     1     -12.130 -17.169  17.189  1.00  0.00    -0.011 A 
ATOM     10  C   UNL     1     -11.009 -18.556  18.889  1.00  0.00    -0.007 C 
ATOM     11  C   UNL     1     -12.843 -15.961  17.209  1.00  0.00     0.010 A 
ATOM     12  C   UNL     1     -12.979 -15.176  16.078  1.00  0.00     0.046 A 
ATOM     13  C   UNL     1     -14.053 -14.166  17.800  1.00  0.00     0.087 A 
ATOM     14  C   UNL     1     -11.551 -17.561  15.979  1.00  0.00     0.009 A 
ATOM     15  C   UNL     1     -12.413 -15.552  14.858  1.00  0.00     0.027 A 
ATOM     16  C   UNL     1     -11.697 -16.763  14.835  1.00  0.00     0.003 A 
ATOM     17  H   UNL     1     -13.981 -13.319  15.850  1.00  0.00     0.166 HD
ENDROOT
BRANCH   7  18
ATOM     18  C   UNL     1      -9.463 -18.966  20.843  1.00  0.00     0.230 C 
ATOM     19  O   UNL     1      -8.566 -18.480  20.147  1.00  0.00    -0.274 OA
ATOM     20  N   UNL     1      -9.215 -19.365  22.169  1.00  0.00    -0.343 N 
BRANCH  20  21
ATOM     21  C   UNL     1     -10.139 -20.229  22.922  1.00  0.00     0.116 C 
ATOM     22  C   UNL     1     -10.553 -19.707  24.290  1.00  0.00     0.027 C 
ENDBRANCH  20  21
BRANCH  20  23
ATOM     23  C   UNL     1      -7.812 -19.311  22.601  1.00  0.00     0.116 C 
ATOM     24  C   UNL     1      -7.301 -20.658  23.092  1.00  0.00     0.027 C 
ENDBRANCH  20  23
ENDBRANCH   7  18
BRANCH   1  25
ATOM     25  C   UNL     1     -14.236 -17.957  21.694  1.00  0.00     0.082 C 
ATOM     26  C   UNL     1     -15.622 -18.496  21.349  1.00  0.00     0.021 C 
ENDBRANCH   1  25
TORSDOF 4
ENDMDL
MODEL 6
REMARK VINA RESULT:    -8.199      2.675      7.791
REMARK INTER + INTRA:         -10.696
REMARK INTER:                 -10.383
REMARK INTRA:                  -0.313
REMARK UNBOUND:                -0.579
REMARK SMILES CCN(CC)C(=O)[C@@H]1C=C2c3cccc4[nH]cc(c34)C[C@H]2N(CC)C1
REMARK SMILES IDX 22 1 16 2 21 3 10 4 20 5 25 6 8 7 18 8 11 9 9 10 19 11 15 12
REMARK SMILES IDX 17 13 12 14 14 15 13 16 6 18 7 19 3 20 2 21 1 22 4 23 5 24
REMARK SMILES IDX 23 25 24 26
REMARK H PARENT 16 17
ROOT
ATOM      1  N   UNL     1     -10.831 -18.976  21.296  1.00  0.00    -0.295 NA
ATOM      2  N   UNL     1     -14.897 -17.908  16.948  1.00  0.00    -0.361 N 
ATOM      3  C   UNL     1     -11.803 -18.392  20.323  1.00  0.00     0.091 C 
ATOM      4  C   UNL     1     -12.809 -17.413  20.997  1.00  0.00    -0.026 C 
ATOM      5  C   UNL     1     -12.542 -19.419  19.377  1.00  0.00     0.061 C 
ATOM      6  C   UNL     1     -11.511 -19.374  22.539  1.00  0.00     0.102 C 
ATOM      7  C   UNL     1     -12.080 -18.136  23.265  1.00  0.00     0.116 C 
ATOM      8  C   UNL     1     -13.508 -18.691  18.497  1.00  0.00    -0.020 A 
ATOM      9  C   UNL     1     -13.729 -16.709  20.080  1.00  0.00    -0.011 A 
ATOM     10  C   UNL     1     -12.918 -17.291  22.333  1.00  0.00    -0.007 C 
ATOM     11  C   UNL     1     -14.002 -17.430  18.908  1.00  0.00     0.010 A 
ATOM     12  C   UNL     1     -14.862 -16.948  17.938  1.00  0.00     0.046 A 
ATOM     13  C   UNL     1     -14.079 -18.969  17.276  1.00  0.00     0.087 A 
ATOM     14  C   UNL     1     -14.361 -15.473  20.243  1.00  0.00     0.009 A 
ATOM     15  C   UNL     1     -15.500 -15.712  18.078  1.00  0.00     0.027 A 
ATOM     16  C   UNL     1     -15.228 -14.987  19.252  1.00  0.00     0.003 A 
ATOM     17  H   UNL     1     -15.448 -17.840  16.104  1.00  0.00     0.166 HD
ENDROOT
BRANCH   7  18
ATOM     18  C   UNL     1     -12.898 -18.623  24.477  1.00  0.00     0.230 C 
ATOM     19  O   UNL     1     -14.118 -18.438  24.529  1.00  0.00    -0.274 OA
ATOM     20  N   UNL     1     -12.227 -19.322  25.497  1.00  0.00    -0.343 N 
BRANCH  20  21
ATOM     21  C   UNL     1     -10.763 -19.292  25.647  1.00  0.00     0.116 C 
ATOM     22  C   UNL     1     -10.256 -18.867  27.018  1.00  0.00     0.027 C 
ENDBRANCH  20  21
BRANCH  20  23
ATOM     23  C   UNL     1     -13.036 -19.668  26.674  1.00  0.00     0.116 C 
ATOM     24  C   UNL     1     -13.392 -21.147  26.724  1.00  0.00     0.027 C 
ENDBRANCH  20  23
ENDBRANCH   7  18
BRANCH   1  25
ATOM     25  C   UNL     1     -10.004 -20.036  20.715  1.00  0.00     0.082 C 
ATOM     26  C   UNL     1      -8.597 -20.070  21.306  1.00  0.00     0.021 C 
ENDBRANCH   1  25
TORSDOF 4
ENDMDL
MODEL 7
REMARK VINA RESULT:    -8.195      3.760      9.603
REMARK INTER + INTRA:         -10.691
REMARK INTER:                 -10.134
REMARK INTRA:                  -0.557
REMARK UNBOUND:                -0.579
REMARK SMILES CCN(CC)C(=O)[C@@H]1C=C2c3cccc4[nH]cc(c34)C[C@H]2N(CC)C1
REMARK SMILES IDX 22 1 16 2 21 3 10 4 20 5 25 6 8 7 18 8 11 9 9 10 19 11 15 12
REMARK SMILES IDX 17 13 12 14 14 15 13 16 6 18 7 19 3 20 2 21 1 22 4 23 5 24
REMARK SMILES IDX 23 25 24 26
REMARK H PARENT 16 17
ROOT
ATOM      1  N   UNL     1     -12.493 -15.911  15.825  1.00  0.00    -0.295 NA
ATOM      2  N   UNL     1     -18.343 -14.564  16.563  1.00  0.00    -0.361 N 
ATOM      3  C   UNL     1     -13.827 -15.420  16.284  1.00  0.00     0.091 C 
ATOM      4  C   UNL     1     -14.076 -15.693  17.797  1.00  0.00    -0.026 C 
ATOM      5  C   UNL     1     -15.068 -15.857  15.407  1.00  0.00     0.061 C 
ATOM      6  C   UNL     1     -12.206 -17.243  16.381  1.00  0.00     0.102 C 
ATOM      7  C   UNL     1     -12.077 -17.171  17.918  1.00  0.00     0.116 C 
ATOM      8  C   UNL     1     -16.328 -15.328  16.016  1.00  0.00    -0.020 A 
ATOM      9  C   UNL     1     -15.328 -15.135  18.350  1.00  0.00    -0.011 A 
ATOM     10  C   UNL     1     -13.269 -16.475  18.536  1.00  0.00    -0.007 C 
ATOM     11  C   UNL     1     -16.350 -15.015  17.396  1.00  0.00     0.010 A 
ATOM     12  C   UNL     1     -17.605 -14.537  17.727  1.00  0.00     0.046 A 
ATOM     13  C   UNL     1     -17.578 -15.041  15.518  1.00  0.00     0.087 A 
ATOM     14  C   UNL     1     -15.618 -14.754  19.663  1.00  0.00     0.009 A 
ATOM     15  C   UNL     1     -17.914 -14.146  19.033  1.00  0.00     0.027 A 
ATOM     16  C   UNL     1     -16.892 -14.265  19.991  1.00  0.00     0.003 A 
ATOM     17  H   UNL     1     -19.309 -14.276  16.490  1.00  0.00     0.166 HD
ENDROOT
BRANCH   7  18
ATOM     18  C   UNL     1     -11.919 -18.607  18.455  1.00  0.00     0.230 C 
ATOM     19  O   UNL     1     -12.797 -19.453  18.258  1.00  0.00    -0.274 OA
ATOM     20  N   UNL     1     -10.731 -18.939  19.133  1.00  0.00    -0.343 N 
BRANCH  20  21
ATOM     21  C   UNL     1      -9.815 -17.919  19.670  1.00  0.00     0.116 C 
ATOM     22  C   UNL     1      -8.767 -17.404  18.693  1.00  0.00     0.027 C 
ENDBRANCH  20  21
BRANCH  20  23
ATOM     23  C   UNL     1     -10.682 -20.287  19.714  1.00  0.00     0.116 C 
ATOM     24  C   UNL     1     -10.640 -20.266  21.235  1.00  0.00     0.027 C 
ENDBRANCH  20  23
ENDBRANCH   7  18
BRANCH   1  25
ATOM     25  C   UNL     1     -12.322 -15.834  14.372  1.00  0.00     0.082 C 
ATOM     26  C   UNL     1     -11.326 -14.754  13.958  1.00  0.00     0.021 C 
ENDBRANCH   1  25
TORSDOF 4
ENDMDL
MODEL 8
REMARK VINA RESULT:    -8.177      2.414      4.717
REMARK INTER + INTRA:         -10.668
REMARK INTER:                  -9.950
REMARK INTRA:                  -0.718
REMARK UNBOUND:                -0.579
REMARK SMILES CCN(CC)C(=O)[C@@H]1C=C2c3cccc4[nH]cc(c34)C[C@H]2N(CC)C1
REMARK SMILES IDX 22 1 16 2 21 3 10 4 20 5 25 6 8 7 18 8 11 9 9 10 19 11 15 12
REMARK SMILES IDX 17 13 12 14 14 15 13 16 6 18 7 19 3 20 2 21 1 22 4 23 5 24
REMARK SMILES IDX 23 25 24 26
REMARK H PARENT 16 17
ROOT
ATOM      1  N   UNL     1     -12.015 -18.931  18.826  1.00  0.00    -0.295 NA
ATOM      2  N   UNL     1      -7.072 -19.497  22.265  1.00  0.00    -0.361 N 
ATOM      3  C   UNL     1     -10.984 -19.292  19.846  1.00  0.00     0.091 C 
ATOM      4  C   UNL     1     -11.545 -19.267  21.299  1.00  0.00    -0.026 C 
ATOM      5  C   UNL     1      -9.609 -18.521  19.746  1.00  0.00     0.061 C 
ATOM      6  C   UNL     1     -12.817 -17.783  19.278  1.00  0.00     0.102 C 
ATOM      7  C   UNL     1     -13.636 -18.154  20.533  1.00  0.00     0.116 C 
ATOM      8  C   UNL     1      -8.703 -18.957  20.854  1.00  0.00    -0.020 A 
ATOM      9  C   UNL     1     -10.615 -19.723  22.352  1.00  0.00    -0.011 A 
ATOM     10  C   UNL     1     -12.756 -18.764  21.600  1.00  0.00    -0.007 C 
ATOM     11  C   UNL     1      -9.266 -19.511  22.028  1.00  0.00     0.010 A 
ATOM     12  C   UNL     1      -8.245 -19.848  22.899  1.00  0.00     0.046 A 
ATOM     13  C   UNL     1      -7.338 -18.956  21.023  1.00  0.00     0.087 A 
ATOM     14  C   UNL     1     -10.902 -20.290  23.596  1.00  0.00     0.009 A 
ATOM     15  C   UNL     1      -8.511 -20.421  24.146  1.00  0.00     0.027 A 
ATOM     16  C   UNL     1      -9.862 -20.635  24.473  1.00  0.00     0.003 A 
ATOM     17  H   UNL     1      -6.150 -19.618  22.660  1.00  0.00     0.166 HD
ENDROOT
BRANCH   7  18
ATOM     18  C   UNL     1     -14.342 -16.881  21.040  1.00  0.00     0.230 C 
ATOM     19  O   UNL     1     -13.761 -15.791  21.028  1.00  0.00    -0.274 OA
ATOM     20  N   UNL     1     -15.676 -16.986  21.473  1.00  0.00    -0.343 N 
BRANCH  20  21
ATOM     21  C   UNL     1     -16.301 -18.276  21.810  1.00  0.00     0.116 C 
ATOM     22  C   UNL     1     -16.510 -18.532  23.296  1.00  0.00     0.027 C 
ENDBRANCH  20  21
BRANCH  20  23
ATOM     23  C   UNL     1     -16.261 -15.765  22.044  1.00  0.00     0.116 C 
ATOM     24  C   UNL     1     -17.192 -15.054  21.073  1.00  0.00     0.027 C 
ENDBRANCH  20  23
ENDBRANCH   7  18
BRANCH   1  25
ATOM     25  C   UNL     1     -11.459 -18.766  17.482  1.00  0.00     0.082 C 
ATOM     26  C   UNL     1     -11.783 -17.401  16.879  1.00  0.00     0.021 C 
ENDBRANCH   1  25
TORSDOF 4
ENDMDL
MODEL 9
REMARK VINA RESULT:    -8.155      1.741      7.132
REMARK INTER + INTRA:         -10.642
REMARK INTER:                 -10.519
REMARK INTRA:                  -0.122
REMARK UNBOUND:                -0.579
REMARK SMILES CCN(CC)C(=O)[C@@H]1C=C2c3cccc4[nH]cc(c34)C[C@H]2N(CC)C1
REMARK SMILES IDX 22 1 16 2 21 3 10 4 20 5 25 6 8 7 18 8 11 9 9 10 19 11 15 12
REMARK SMILES IDX 17 13 12 14 14 15 13 16 6 18 7 19 3 20 2 21 1 22 4 23 5 24
REMARK SMILES IDX 23 25 24 26
REMARK H PARENT 16 17
ROOT
ATOM      1  N   UNL     1     -12.439 -18.863  22.990  1.00  0.00    -0.295 NA
ATOM      2  N   UNL     1     -15.163 -15.597  18.689  1.00  0.00    -0.361 N 
ATOM      3  C   UNL     1     -13.152 -18.356  21.779  1.00  0.00     0.091 C 
ATOM      4  C   UNL     1     -12.573 -18.940  20.456  1.00  0.00    -0.026 C 
ATOM      5  C   UNL     1     -13.338 -16.790  21.686  1.00  0.00     0.061 C 
ATOM      6  C   UNL     1     -10.983 -18.871  22.774  1.00  0.00     0.102 C 
ATOM      7  C   UNL     1     -10.607 -19.875  21.663  1.00  0.00     0.116 C 
ATOM      8  C   UNL     1     -14.025 -16.437  20.405  1.00  0.00    -0.020 A 
ATOM      9  C   UNL     1     -13.301 -18.573  19.223  1.00  0.00    -0.011 A 
ATOM     10  C   UNL     1     -11.426 -19.642  20.414  1.00  0.00    -0.007 C 
ATOM     11  C   UNL     1     -13.956 -17.336  19.314  1.00  0.00     0.010 A 
ATOM     12  C   UNL     1     -14.669 -16.808  18.252  1.00  0.00     0.046 A 
ATOM     13  C   UNL     1     -14.779 -15.363  19.994  1.00  0.00     0.087 A 
ATOM     14  C   UNL     1     -13.388 -19.266  18.013  1.00  0.00     0.009 A 
ATOM     15  C   UNL     1     -14.773 -17.487  17.035  1.00  0.00     0.027 A 
ATOM     16  C   UNL     1     -14.117 -18.728  16.941  1.00  0.00     0.003 A 
ATOM     17  H   UNL     1     -15.724 -14.972  18.128  1.00  0.00     0.166 HD
ENDROOT
BRANCH   7  18
ATOM     18  C   UNL     1      -9.097 -19.738  21.383  1.00  0.00     0.230 C 
ATOM     19  O   UNL     1      -8.693 -19.371  20.275  1.00  0.00    -0.274 OA
ATOM     20  N   UNL     1      -8.198 -19.998  22.434  1.00  0.00    -0.343 N 
BRANCH  20  21
ATOM     21  C   UNL     1      -8.589 -20.733  23.648  1.00  0.00     0.116 C 
ATOM     22  C   UNL     1      -7.482 -20.939  24.672  1.00  0.00     0.027 C 
ENDBRANCH  20  21
BRANCH  20  23
ATOM     23  C   UNL     1      -6.773 -19.956  22.080  1.00  0.00     0.116 C 
ATOM     24  C   UNL     1      -6.196 -18.550  22.150  1.00  0.00     0.027 C 
ENDBRANCH  20  23
ENDBRANCH   7  18
BRANCH   1  25
ATOM     25  C   UNL     1     -12.844 -18.182  24.222  1.00  0.00     0.082 C 
ATOM     26  C   UNL     1     -12.737 -19.082  25.450  1.00  0.00     0.021 C 
ENDBRANCH   1  25
TORSDOF 4
ENDMDL
MODEL 10
REMARK VINA RESULT:    -8.149      1.356      1.732
REMARK INTER + INTRA:         -10.634
REMARK INTER:                  -9.998
REMARK INTRA:                  -0.636
REMARK UNBOUND:                -0.579
REMARK SMILES CCN(CC)C(=O)[C@@H]1C=C2c3cccc4[nH]cc(c34)C[C@H]2N(CC)C1
REMARK SMILES IDX 22 1 16 2 21 3 10 4 20 5 25 6 8 7 18 8 11 9 9 10 19 11 15 12
REMARK SMILES IDX 17 13 12 14 14 15 13 16 6 18 7 19 3 20 2 21 1 22 4 23 5 24
REMARK SMILES IDX 23 25 24 26
REMARK H PARENT 16 17
ROOT
ATOM      1  N   UNL     1     -12.952 -17.730  23.282  1.00  0.00    -0.295 NA
ATOM      2  N   UNL     1      -8.590 -21.526  25.055  1.00  0.00    -0.361 N 
ATOM      3  C   UNL     1     -11.677 -18.466  23.535  1.00  0.00     0.091 C 
ATOM      4  C   UNL     1     -10.869 -18.729  22.230  1.00  0.00    -0.026 C 
ATOM      5  C   UNL     1     -11.792 -19.773  24.415  1.00  0.00     0.061 C 
ATOM      6  C   UNL     1     -13.640 -18.266  22.097  1.00  0.00     0.102 C 
ATOM      7  C   UNL     1     -12.799 -18.019  20.826  1.00  0.00     0.116 C 
ATOM      8  C   UNL     1     -10.448 -20.418  24.541  1.00  0.00    -0.020 A 
ATOM      9  C   UNL     1      -9.542 -19.352  22.413  1.00  0.00    -0.011 A 
ATOM     10  C   UNL     1     -11.379 -18.508  21.004  1.00  0.00    -0.007 C 
ATOM     11  C   UNL     1      -9.462 -20.156  23.560  1.00  0.00     0.010 A 
ATOM     12  C   UNL     1      -8.308 -20.845  23.889  1.00  0.00     0.046 A 
ATOM     13  C   UNL     1      -9.885 -21.273  25.460  1.00  0.00     0.087 A 
ATOM     14  C   UNL     1      -8.409 -19.268  21.600  1.00  0.00     0.009 A 
ATOM     15  C   UNL     1      -7.163 -20.770  23.092  1.00  0.00     0.027 A 
ATOM     16  C   UNL     1      -7.240 -19.965  21.942  1.00  0.00     0.003 A 
ATOM     17  H   UNL     1      -7.937 -22.126  25.540  1.00  0.00     0.166 HD
ENDROOT
BRANCH   7  18
ATOM     18  C   UNL     1     -13.495 -18.723  19.644  1.00  0.00     0.230 C 
ATOM     19  O   UNL     1     -14.164 -19.745  19.826  1.00  0.00    -0.274 OA
ATOM     20  N   UNL     1     -13.386 -18.145  18.366  1.00  0.00    -0.343 N 
BRANCH  20  21
ATOM     21  C   UNL     1     -12.364 -17.138  18.036  1.00  0.00     0.116 C 
ATOM     22  C   UNL     1     -11.149 -17.663  17.283  1.00  0.00     0.027 C 
ENDBRANCH  20  21
BRANCH  20  23
ATOM     23  C   UNL     1     -13.979 -18.914  17.264  1.00  0.00     0.116 C 
ATOM     24  C   UNL     1     -14.679 -18.028  16.244  1.00  0.00     0.027 C 
ENDBRANCH  20  23
ENDBRANCH   7  18
BRANCH   1  25
ATOM     25  C   UNL     1     -13.809 -17.643  24.467  1.00  0.00     0.082 C 
ATOM     26  C   UNL     1     -15.206 -18.206  24.221  1.00  0.00     0.021 C 
ENDBRANCH   1  25
TORSDOF 4
ENDMDL
MODEL 11
REMARK VINA RESULT:    -8.143      2.466      5.451
REMARK INTER + INTRA:         -10.626
REMARK INTER:                 -10.244
REMARK INTRA:                  -0.382
REMARK UNBOUND:                -0.579
REMARK SMILES CCN(CC)C(=O)[C@@H]1C=C2c3cccc4[nH]cc(c34)C[C@H]2N(CC)C1
REMARK SMILES IDX 22 1 16 2 21 3 10 4 20 5 25 6 8 7 18 8 11 9 9 10 19 11 15 12
REMARK SMILES IDX 17 13 12 14 14 15 13 16 6 18 7 19 3 20 2 21 1 22 4 23 5 24
REMARK SMILES IDX 23 25 24 26
REMARK H PARENT 16 17
ROOT
ATOM      1  N   UNL     1     -12.258 -19.402  20.581  1.00  0.00    -0.295 NA
ATOM      2  N   UNL     1      -6.580 -17.568  19.591  1.00  0.00    -0.361 N 
ATOM      3  C   UNL     1     -10.776 -19.221  20.521  1.00  0.00     0.091 C 
ATOM      4  C   UNL     1     -10.100 -19.358  21.917  1.00  0.00    -0.026 C 
ATOM      5  C   UNL     1     -10.263 -17.937  19.755  1.00  0.00     0.061 C 
ATOM      6  C   UNL     1     -12.825 -18.691  21.737  1.00  0.00     0.102 C 
ATOM      7  C   UNL     1     -12.312 -19.307  23.057  1.00  0.00     0.116 C 
ATOM      8  C   UNL     1      -8.770 -17.872  19.820  1.00  0.00    -0.020 A 
ATOM      9  C   UNL     1      -8.623 -19.303  21.921  1.00  0.00    -0.011 A 
ATOM     10  C   UNL     1     -10.804 -19.413  23.062  1.00  0.00    -0.007 C 
ATOM     11  C   UNL     1      -8.094 -18.546  20.864  1.00  0.00     0.010 A 
ATOM     12  C   UNL     1      -6.733 -18.357  20.713  1.00  0.00     0.046 A 
ATOM     13  C   UNL     1      -7.810 -17.270  19.041  1.00  0.00     0.087 A 
ATOM     14  C   UNL     1      -7.723 -19.865  22.830  1.00  0.00     0.009 A 
ATOM     15  C   UNL     1      -5.815 -18.914  21.608  1.00  0.00     0.027 A 
ATOM     16  C   UNL     1      -6.342 -19.674  22.668  1.00  0.00     0.003 A 
ATOM     17  H   UNL     1      -5.690 -17.255  19.229  1.00  0.00     0.166 HD
ENDROOT
BRANCH   7  18
ATOM     18  C   UNL     1     -12.823 -18.439  24.223  1.00  0.00     0.230 C 
ATOM     19  O   UNL     1     -13.077 -17.243  24.054  1.00  0.00    -0.274 OA
ATOM     20  N   UNL     1     -13.035 -19.056  25.470  1.00  0.00    -0.343 N 
BRANCH  20  21
ATOM     21  C   UNL     1     -12.460 -20.367  25.814  1.00  0.00     0.116 C 
ATOM     22  C   UNL     1     -13.352 -21.272  26.652  1.00  0.00     0.027 C 
ENDBRANCH  20  21
BRANCH  20  23
ATOM     23  C   UNL     1     -13.420 -18.160  26.569  1.00  0.00     0.116 C 
ATOM     24  C   UNL     1     -14.925 -17.952  26.654  1.00  0.00     0.027 C 
ENDBRANCH  20  23
ENDBRANCH   7  18
BRANCH   1  25
ATOM     25  C   UNL     1     -12.926 -19.090  19.315  1.00  0.00     0.082 C 
ATOM     26  C   UNL     1     -14.441 -19.253  19.398  1.00  0.00     0.021 C 
ENDBRANCH   1  25
TORSDOF 4
ENDMDL
MODEL 12
REMARK VINA RESULT:    -8.078      3.391      6.354
REMARK INTER + INTRA:         -10.546
REMARK INTER:                  -9.952
REMARK INTRA:                  -0.594
REMARK UNBOUND:                -0.579
REMARK SMILES CCN(CC)C(=O)[C@@H]1C=C2c3cccc4[nH]cc(c34)C[C@H]2N(CC)C1
REMARK SMILES IDX 22 1 16 2 21 3 10 4 20 5 25 6 8 7 18 8 11 9 9 10 19 11 15 12
REMARK SMILES IDX 17 13 12 14 14 15 13 16 6 18 7 19 3 20 2 21 1 22 4 23 5 24
REMARK SMILES IDX 23 25 24 26
REMARK H PARENT 16 17
ROOT
ATOM      1  N   UNL     1     -12.230 -17.332  16.193  1.00  0.00    -0.295 NA
ATOM      2  N   UNL     1      -7.999 -18.384  20.385  1.00  0.00    -0.361 N 
ATOM      3  C   UNL     1     -11.386 -17.849  17.312  1.00  0.00     0.091 C 
ATOM      4  C   UNL     1     -12.213 -18.133  18.601  1.00  0.00    -0.026 C 
ATOM      5  C   UNL     1     -10.079 -17.023  17.636  1.00  0.00     0.061 C 
ATOM      6  C   UNL     1     -13.187 -16.326  16.680  1.00  0.00     0.102 C 
ATOM      7  C   UNL     1     -14.199 -16.969  17.654  1.00  0.00     0.116 C 
ATOM      8  C   UNL     1      -9.369 -17.635  18.802  1.00  0.00    -0.020 A 
ATOM      9  C   UNL     1     -11.467 -18.754  19.716  1.00  0.00    -0.011 A 
ATOM     10  C   UNL     1     -13.493 -17.745  18.742  1.00  0.00    -0.007 C 
ATOM     11  C   UNL     1     -10.101 -18.432  19.715  1.00  0.00     0.010 A 
ATOM     12  C   UNL     1      -9.242 -18.897  20.694  1.00  0.00     0.046 A 
ATOM     13  C   UNL     1      -8.065 -17.618  19.239  1.00  0.00     0.087 A 
ATOM     14  C   UNL     1     -11.941 -19.567  20.749  1.00  0.00     0.009 A 
ATOM     15  C   UNL     1      -9.694 -19.715  21.732  1.00  0.00     0.027 A 
ATOM     16  C   UNL     1     -11.063 -20.039  21.736  1.00  0.00     0.003 A 
ATOM     17  H   UNL     1      -7.162 -18.546  20.927  1.00  0.00     0.166 HD
ENDROOT
BRANCH   7  18
ATOM     18  C   UNL     1     -15.082 -15.849  18.238  1.00  0.00     0.230 C 
ATOM     19  O   UNL     1     -14.896 -15.436  19.387  1.00  0.00    -0.274 OA
ATOM     20  N   UNL     1     -16.071 -15.281  17.414  1.00  0.00    -0.343 N 
BRANCH  20  21
ATOM     21  C   UNL     1     -16.545 -15.932  16.182  1.00  0.00     0.116 C 
ATOM     22  C   UNL     1     -16.233 -15.190  14.890  1.00  0.00     0.027 C 
ENDBRANCH  20  21
BRANCH  20  23
ATOM     23  C   UNL     1     -16.949 -14.295  18.057  1.00  0.00     0.116 C 
ATOM     24  C   UNL     1     -16.674 -12.874  17.588  1.00  0.00     0.027 C 
ENDBRANCH  20  23
ENDBRANCH   7  18
BRANCH   1  25
ATOM     25  C   UNL     1     -11.443 -16.882  15.042  1.00  0.00     0.082 C 
ATOM     26  C   UNL     1     -11.954 -15.565  14.463  1.00  0.00     0.021 C 
ENDBRANCH   1  25
TORSDOF 4
ENDMDL
MODEL 13
REMARK VINA RESULT:    -8.070      4.174      9.247
REMARK INTER + INTRA:         -10.537
REMARK INTER:                  -9.954
REMARK INTRA:                  -0.583
REMARK UNBOUND:                -0.579
REMARK SMILES CCN(CC)C(=O)[C@@H]1C=C2c3cccc4[nH]cc(c34)C[C@H]2N(CC)C1
REMARK SMILES IDX 22 1 16 2 21 3 10 4 20 5 25 6 8 7 18 8 11 9 9 10 19 11 15 12
REMARK SMILES IDX 17 13 12 14 14 15 13 16 6 18 7 19 3 20 2 21 1 22 4 23 5 24
REMARK SMILES IDX 23 25 24 26
REMARK H PARENT 16 17
ROOT
ATOM      1  N   UNL     1     -12.477 -16.738  19.810  1.00  0.00    -0.295 NA
ATOM      2  N   UNL     1     -15.402 -14.957  14.825  1.00  0.00    -0.361 N 
ATOM      3  C   UNL     1     -13.249 -16.015  18.755  1.00  0.00     0.091 C 
ATOM      4  C   UNL     1     -14.549 -15.360  19.309  1.00  0.00    -0.026 C 
ATOM      5  C   UNL     1     -13.531 -16.820  17.425  1.00  0.00     0.061 C 
ATOM      6  C   UNL     1     -13.376 -17.522  20.672  1.00  0.00     0.102 C 
ATOM      7  C   UNL     1     -14.318 -16.588  21.463  1.00  0.00     0.116 C 
ATOM      8  C   UNL     1     -14.347 -15.984  16.491  1.00  0.00    -0.020 A 
ATOM      9  C   UNL     1     -15.308 -14.532  18.349  1.00  0.00    -0.011 A 
ATOM     10  C   UNL     1     -15.019 -15.612  20.545  1.00  0.00    -0.007 C 
ATOM     11  C   UNL     1     -15.140 -14.936  17.016  1.00  0.00     0.010 A 
ATOM     12  C   UNL     1     -15.789 -14.300  15.974  1.00  0.00     0.046 A 
ATOM     13  C   UNL     1     -14.526 -15.980  15.127  1.00  0.00     0.087 A 
ATOM     14  C   UNL     1     -16.163 -13.455  18.598  1.00  0.00     0.009 A 
ATOM     15  C   UNL     1     -16.645 -13.218  16.200  1.00  0.00     0.027 A 
ATOM     16  C   UNL     1     -16.815 -12.811  17.536  1.00  0.00     0.003 A 
ATOM     17  H   UNL     1     -15.720 -14.721  13.895  1.00  0.00     0.166 HD
ENDROOT
BRANCH   7  18
ATOM     18  C   UNL     1     -15.325 -17.462  22.235  1.00  0.00     0.230 C 
ATOM     19  O   UNL     1     -16.439 -17.705  21.763  1.00  0.00    -0.274 OA
ATOM     20  N   UNL     1     -14.923 -18.011  23.467  1.00  0.00    -0.343 N 
BRANCH  20  21
ATOM     21  C   UNL     1     -13.761 -17.508  24.218  1.00  0.00     0.116 C 
ATOM     22  C   UNL     1     -12.490 -18.334  24.083  1.00  0.00     0.027 C 
ENDBRANCH  20  21
BRANCH  20  23
ATOM     23  C   UNL     1     -15.958 -18.745  24.207  1.00  0.00     0.116 C 
ATOM     24  C   UNL     1     -15.612 -18.919  25.679  1.00  0.00     0.027 C 
ENDBRANCH  20  23
ENDBRANCH   7  18
BRANCH   1  25
ATOM     25  C   UNL     1     -11.358 -17.515  19.271  1.00  0.00     0.082 C 
ATOM     26  C   UNL     1     -11.276 -18.915  19.872  1.00  0.00     0.021 C 
ENDBRANCH   1  25
TORSDOF 4
ENDMDL
MODEL 14
REMARK VINA RESULT:    -8.061      2.297      4.367
REMARK INTER + INTRA:         -10.525
REMARK INTER:                 -10.027
REMARK INTRA:                  -0.498
REMARK UNBOUND:                -0.579
REMARK SMILES CCN(CC)C(=O)[C@@H]1C=C2c3cccc4[nH]cc(c34)C[C@H]2N(CC)C1
REMARK SMILES IDX 22 1 16 2 21 3 10 4 20 5 25 6 8 7 18 8 11 9 9 10 19 11 15 12
REMARK SMILES IDX 17 13 12 14 14 15 13 16 6 18 7 19 3 20 2 21 1 22 4 23 5 24
REMARK SMILES IDX 23 25 24 26
REMARK H PARENT 16 17
ROOT
ATOM      1  N   UNL     1     -11.219 -18.517  18.922  1.00  0.00    -0.295 NA
ATOM      2  N   UNL     1      -6.275 -19.258  22.326  1.00  0.00    -0.361 N 
ATOM      3  C   UNL     1     -10.177 -18.951  19.900  1.00  0.00     0.091 C 
ATOM      4  C   UNL     1     -10.748 -19.147  21.335  1.00  0.00    -0.026 C 
ATOM      5  C   UNL     1      -8.845 -18.100  19.921  1.00  0.00     0.061 C 
ATOM      6  C   UNL     1     -12.087 -17.482  19.507  1.00  0.00     0.102 C 
ATOM      7  C   UNL     1     -12.892 -18.059  20.692  1.00  0.00     0.116 C 
ATOM      8  C   UNL     1      -7.925 -18.628  20.975  1.00  0.00    -0.020 A 
ATOM      9  C   UNL     1      -9.801 -19.686  22.333  1.00  0.00    -0.011 A 
ATOM     10  C   UNL     1     -11.987 -18.755  21.683  1.00  0.00    -0.007 C 
ATOM     11  C   UNL     1      -8.464 -19.360  22.059  1.00  0.00     0.010 A 
ATOM     12  C   UNL     1      -7.432 -19.753  22.893  1.00  0.00     0.046 A 
ATOM     13  C   UNL     1      -6.563 -18.575  21.162  1.00  0.00     0.087 A 
ATOM     14  C   UNL     1     -10.064 -20.426  23.489  1.00  0.00     0.009 A 
ATOM     15  C   UNL     1      -7.673 -20.497  24.050  1.00  0.00     0.027 A 
ATOM     16  C   UNL     1      -9.013 -20.825  24.327  1.00  0.00     0.003 A 
ATOM     17  H   UNL     1      -5.351 -19.380  22.714  1.00  0.00     0.166 HD
ENDROOT
BRANCH   7  18
ATOM     18  C   UNL     1     -13.671 -16.903  21.351  1.00  0.00     0.230 C 
ATOM     19  O   UNL     1     -13.359 -16.493  22.473  1.00  0.00    -0.274 OA
ATOM     20  N   UNL     1     -14.714 -16.301  20.623  1.00  0.00    -0.343 N 
BRANCH  20  21
ATOM     21  C   UNL     1     -15.331 -16.939  19.448  1.00  0.00     0.116 C 
ATOM     22  C   UNL     1     -15.249 -16.142  18.154  1.00  0.00     0.027 C 
ENDBRANCH  20  21
BRANCH  20  23
ATOM     23  C   UNL     1     -15.488 -15.280  21.341  1.00  0.00     0.116 C 
ATOM     24  C   UNL     1     -16.827 -15.805  21.840  1.00  0.00     0.027 C 
ENDBRANCH  20  23
ENDBRANCH   7  18
BRANCH   1  25
ATOM     25  C   UNL     1     -10.664 -18.146  17.618  1.00  0.00     0.082 C 
ATOM     26  C   UNL     1     -11.735 -17.670  16.641  1.00  0.00     0.021 C 
ENDBRANCH   1  25
TORSDOF 4
ENDMDL
MODEL 15
REMARK VINA RESULT:    -8.035      1.769      2.342
REMARK INTER + INTRA:         -10.493
REMARK INTER:                 -10.236
REMARK INTRA:                  -0.257
REMARK UNBOUND:                -0.579
REMARK SMILES CCN(CC)C(=O)[C@@H]1C=C2c3cccc4[nH]cc(c34)C[C@H]2N(CC)C1
REMARK SMILES IDX 22 1 16 2 21 3 10 4 20 5 25 6 8 7 18 8 11 9 9 10 19 11 15 12
REMARK SMILES IDX 17 13 12 14 14 15 13 16 6 18 7 19 3 20 2 21 1 22 4 23 5 24
REMARK SMILES IDX 23 25 24 26
REMARK H PARENT 16 17
ROOT
ATOM      1  N   UNL     1     -11.447 -18.738  25.626  1.00  0.00    -0.295 NA
ATOM      2  N   UNL     1      -6.394 -22.016  25.081  1.00  0.00    -0.361 N 
ATOM      3  C   UNL     1     -10.082 -19.271  25.337  1.00  0.00     0.091 C 
ATOM      4  C   UNL     1      -9.639 -19.018  23.866  1.00  0.00    -0.026 C 
ATOM      5  C   UNL     1      -9.814 -20.767  25.771  1.00  0.00     0.061 C 
ATOM      6  C   UNL     1     -12.373 -19.047  24.524  1.00  0.00     0.102 C 
ATOM      7  C   UNL     1     -11.942 -18.315  23.234  1.00  0.00     0.116 C 
ATOM      8  C   UNL     1      -8.427 -21.167  25.378  1.00  0.00    -0.020 A 
ATOM      9  C   UNL     1      -8.255 -19.416  23.537  1.00  0.00    -0.011 A 
ATOM     10  C   UNL     1     -10.485 -18.569  22.921  1.00  0.00    -0.007 C 
ATOM     11  C   UNL     1      -7.780 -20.473  24.327  1.00  0.00     0.010 A 
ATOM     12  C   UNL     1      -6.515 -21.004  24.152  1.00  0.00     0.046 A 
ATOM     13  C   UNL     1      -7.548 -22.122  25.831  1.00  0.00     0.087 A 
ATOM     14  C   UNL     1      -7.403 -18.910  22.552  1.00  0.00     0.009 A 
ATOM     15  C   UNL     1      -5.646 -20.509  23.176  1.00  0.00     0.027 A 
ATOM     16  C   UNL     1      -6.119 -19.449  22.382  1.00  0.00     0.003 A 
ATOM     17  H   UNL     1      -5.574 -22.597  25.192  1.00  0.00     0.166 HD
ENDROOT
BRANCH   7  18
ATOM     18  C   UNL     1     -12.858 -18.785  22.086  1.00  0.00     0.230 C 
ATOM     19  O   UNL     1     -12.489 -19.670  21.309  1.00  0.00    -0.274 OA
ATOM     20  N   UNL     1     -14.139 -18.212  21.978  1.00  0.00    -0.343 N 
BRANCH  20  21
ATOM     21  C   UNL     1     -14.505 -16.957  22.655  1.00  0.00     0.116 C 
ATOM     22  C   UNL     1     -15.784 -16.297  22.160  1.00  0.00     0.027 C 
ENDBRANCH  20  21
BRANCH  20  23
ATOM     23  C   UNL     1     -14.924 -18.619  20.806  1.00  0.00     0.116 C 
ATOM     24  C   UNL     1     -14.395 -18.018  19.511  1.00  0.00     0.027 C 
ENDBRANCH  20  23
ENDBRANCH   7  18
BRANCH   1  25
ATOM     25  C   UNL     1     -11.952 -19.133  26.943  1.00  0.00     0.082 C 
ATOM     26  C   UNL     1     -13.205 -20.000  26.852  1.00  0.00     0.021 C 
ENDBRANCH   1  25
TORSDOF 4
ENDMDL
MODEL 16
REMARK VINA RESULT:    -7.976      6.090      8.862
REMARK INTER + INTRA:         -10.421
REMARK INTER:                  -9.908
REMARK INTRA:                  -0.513
REMARK UNBOUND:                -0.579
REMARK SMILES CCN(CC)C(=O)[C@@H]1C=C2c3cccc4[nH]cc(c34)C[C@H]2N(CC)C1
REMARK SMILES IDX 22 1 16 2 21 3 10 4 20 5 25 6 8 7 18 8 11 9 9 10 19 11 15 12
REMARK SMILES IDX 17 13 12 14 14 15 13 16 6 18 7 19 3 20 2 21 1 22 4 23 5 24
REMARK SMILES IDX 23 25 24 26
REMARK H PARENT 16 17
ROOT
ATOM      1  N   UNL     1     -15.782 -14.595  18.754  1.00  0.00    -0.295 NA
ATOM      2  N   UNL     1     -11.185 -18.302  17.445  1.00  0.00    -0.361 N 
ATOM      3  C   UNL     1     -14.557 -15.263  18.220  1.00  0.00     0.091 C 
ATOM      4  C   UNL     1     -14.476 -15.210  16.666  1.00  0.00    -0.026 C 
ATOM      5  C   UNL     1     -14.266 -16.718  18.763  1.00  0.00     0.061 C 
ATOM      6  C   UNL     1     -16.963 -14.950  17.951  1.00  0.00     0.102 C 
ATOM      7  C   UNL     1     -16.826 -14.402  16.515  1.00  0.00     0.116 C 
ATOM      8  C   UNL     1     -13.039 -17.267  18.106  1.00  0.00    -0.020 A 
ATOM      9  C   UNL     1     -13.236 -15.750  16.070  1.00  0.00    -0.011 A 
ATOM     10  C   UNL     1     -15.504 -14.802  15.899  1.00  0.00    -0.007 C 
ATOM     11  C   UNL     1     -12.635 -16.747  16.853  1.00  0.00     0.010 A 
ATOM     12  C   UNL     1     -11.480 -17.393  16.451  1.00  0.00     0.046 A 
ATOM     13  C   UNL     1     -12.124 -18.233  18.455  1.00  0.00     0.087 A 
ATOM     14  C   UNL     1     -12.627 -15.424  14.856  1.00  0.00     0.009 A 
ATOM     15  C   UNL     1     -10.852 -17.079  15.243  1.00  0.00     0.027 A 
ATOM     16  C   UNL     1     -11.452 -16.078  14.456  1.00  0.00     0.003 A 
ATOM     17  H   UNL     1     -10.394 -18.929  17.431  1.00  0.00     0.166 HD
ENDROOT
BRANCH   7  18
ATOM     18  C   UNL     1     -18.017 -14.921  15.686  1.00  0.00     0.230 C 
ATOM     19  O   UNL     1     -18.436 -16.073  15.839  1.00  0.00    -0.274 OA
ATOM     20  N   UNL     1     -18.640 -14.037  14.786  1.00  0.00    -0.343 N 
BRANCH  20  21
ATOM     21  C   UNL     1     -18.002 -12.790  14.332  1.00  0.00     0.116 C 
ATOM     22  C   UNL     1     -18.958 -11.696  13.878  1.00  0.00     0.027 C 
ENDBRANCH  20  21
BRANCH  20  23
ATOM     23  C   UNL     1     -19.698 -14.617  13.948  1.00  0.00     0.116 C 
ATOM     24  C   UNL     1     -21.078 -14.483  14.575  1.00  0.00     0.027 C 
ENDBRANCH  20  23
ENDBRANCH   7  18
BRANCH   1  25
ATOM     25  C   UNL     1     -15.967 -14.802  20.192  1.00  0.00     0.082 C 
ATOM     26  C   UNL     1     -17.415 -14.598  20.630  1.00  0.00     0.021 C 
ENDBRANCH   1  25
TORSDOF 4
ENDMDL
MODEL 17
REMARK VINA RESULT:    -7.966      2.736      5.076
REMARK INTER + INTRA:         -10.408
REMARK INTER:                 -11.149
REMARK INTRA:                   0.741
REMARK UNBOUND:                -0.579
REMARK SMILES CCN(CC)C(=O)[C@@H]1C=C2c3cccc4[nH]cc(c34)C[C@H]2N(CC)C1
REMARK SMILES IDX 22 1 16 2 21 3 10 4 20 5 25 6 8 7 18 8 11 9 9 10 19 11 15 12
REMARK SMILES IDX 17 13 12 14 14 15 13 16 6 18 7 19 3 20 2 21 1 22 4 23 5 24
REMARK SMILES IDX 23 25 24 26
REMARK H PARENT 16 17
ROOT
ATOM      1  N   UNL     1     -12.599 -19.282  18.281  1.00  0.00    -0.295 NA
ATOM      2  N   UNL     1      -7.040 -17.324  19.640  1.00  0.00    -0.361 N 
ATOM      3  C   UNL     1     -11.219 -19.072  18.815  1.00  0.00     0.091 C 
ATOM      4  C   UNL     1     -11.147 -19.223  20.363  1.00  0.00    -0.026 C 
ATOM      5  C   UNL     1     -10.477 -17.764  18.328  1.00  0.00     0.061 C 
ATOM      6  C   UNL     1     -13.595 -18.604  19.126  1.00  0.00     0.102 C 
ATOM      7  C   UNL     1     -13.631 -19.235  20.534  1.00  0.00     0.116 C 
ATOM      8  C   UNL     1      -9.134 -17.673  18.979  1.00  0.00    -0.020 A 
ATOM      9  C   UNL     1      -9.794 -19.141  20.952  1.00  0.00    -0.011 A 
ATOM     10  C   UNL     1     -12.246 -19.312  21.135  1.00  0.00    -0.007 C 
ATOM     11  C   UNL     1      -8.910 -18.354  20.199  1.00  0.00     0.010 A 
ATOM     12  C   UNL     1      -7.604 -18.136  20.601  1.00  0.00     0.046 A 
ATOM     13  C   UNL     1      -7.958 -17.038  18.650  1.00  0.00     0.087 A 
ATOM     14  C   UNL     1      -9.314 -19.703  22.137  1.00  0.00     0.009 A 
ATOM     15  C   UNL     1      -7.102 -18.693  21.780  1.00  0.00     0.027 A 
ATOM     16  C   UNL     1      -7.987 -19.482  22.537  1.00  0.00     0.003 A 
ATOM     17  H   UNL     1      -6.087 -16.987  19.662  1.00  0.00     0.166 HD
ENDROOT
BRANCH   7  18
ATOM     18  C   UNL     1     -14.583 -18.399  21.412  1.00  0.00     0.230 C 
ATOM     19  O   UNL     1     -15.647 -18.876  21.818  1.00  0.00    -0.274 OA
ATOM     20  N   UNL     1     -14.186 -17.098  21.774  1.00  0.00    -0.343 N 
BRANCH  20  21
ATOM     21  C   UNL     1     -13.111 -16.374  21.076  1.00  0.00     0.116 C 
ATOM     22  C   UNL     1     -13.558 -15.524  19.895  1.00  0.00     0.027 C 
ENDBRANCH  20  21
BRANCH  20  23
ATOM     23  C   UNL     1     -15.178 -16.312  22.520  1.00  0.00     0.116 C 
ATOM     24  C   UNL     1     -16.244 -15.710  21.617  1.00  0.00     0.027 C 
ENDBRANCH  20  23
ENDBRANCH   7  18
BRANCH   1  25
ATOM     25  C   UNL     1     -12.719 -18.959  16.858  1.00  0.00     0.082 C 
ATOM     26  C   UNL     1     -13.966 -18.135  16.550  1.00  0.00     0.021 C 
ENDBRANCH   1  25
TORSDOF 4
ENDMDL
MODEL 18
REMARK VINA RESULT:    -7.951      6.336      9.489
REMARK INTER + INTRA:         -10.390
REMARK INTER:                  -9.764
REMARK INTRA:                  -0.626
REMARK UNBOUND:                -0.579
REMARK SMILES CCN(CC)C(=O)[C@@H]1C=C2c3cccc4[nH]cc(c34)C[C@H]2N(CC)C1
REMARK SMILES IDX 22 1 16 2 21 3 10 4 20 5 25 6 8 7 18 8 11 9 9 10 19 11 15 12
REMARK SMILES IDX 17 13 12 14 14 15 13 16 6 18 7 19 3 20 2 21 1 22 4 23 5 24
REMARK SMILES IDX 23 25 24 26
REMARK H PARENT 16 17
ROOT
ATOM      1  N   UNL     1     -16.411 -15.330  14.994  1.00  0.00    -0.295 NA
ATOM      2  N   UNL     1     -10.943 -17.760  15.875  1.00  0.00    -0.361 N 
ATOM      3  C   UNL     1     -15.234 -16.165  15.381  1.00  0.00     0.091 C 
ATOM      4  C   UNL     1     -15.245 -16.551  16.890  1.00  0.00    -0.026 C 
ATOM      5  C   UNL     1     -13.819 -15.620  14.936  1.00  0.00     0.061 C 
ATOM      6  C   UNL     1     -16.675 -14.296  16.008  1.00  0.00     0.102 C 
ATOM      7  C   UNL     1     -17.092 -14.945  17.346  1.00  0.00     0.116 C 
ATOM      8  C   UNL     1     -12.745 -16.536  15.432  1.00  0.00    -0.020 A 
ATOM      9  C   UNL     1     -14.173 -17.471  17.322  1.00  0.00    -0.011 A 
ATOM     10  C   UNL     1     -16.102 -16.006  17.772  1.00  0.00    -0.007 C 
ATOM     11  C   UNL     1     -13.007 -17.365  16.549  1.00  0.00     0.010 A 
ATOM     12  C   UNL     1     -11.883 -18.127  16.815  1.00  0.00     0.046 A 
ATOM     13  C   UNL     1     -11.456 -16.797  15.030  1.00  0.00     0.087 A 
ATOM     14  C   UNL     1     -14.165 -18.377  18.386  1.00  0.00     0.009 A 
ATOM     15  C   UNL     1     -11.857 -19.042  17.871  1.00  0.00     0.027 A 
ATOM     16  C   UNL     1     -13.024 -19.150  18.648  1.00  0.00     0.003 A 
ATOM     17  H   UNL     1     -10.010 -18.144  15.818  1.00  0.00     0.166 HD
ENDROOT
BRANCH   7  18
ATOM     18  C   UNL     1     -17.217 -13.830  18.403  1.00  0.00     0.230 C 
ATOM     19  O   UNL     1     -16.397 -12.907  18.444  1.00  0.00    -0.274 OA
ATOM     20  N   UNL     1     -18.312 -13.867  19.285  1.00  0.00    -0.343 N 
BRANCH  20  21
ATOM     21  C   UNL     1     -19.121 -15.080  19.494  1.00  0.00     0.116 C 
ATOM     22  C   UNL     1     -20.484 -15.080  18.817  1.00  0.00     0.027 C 
ENDBRANCH  20  21
BRANCH  20  23
ATOM     23  C   UNL     1     -18.321 -12.841  20.336  1.00  0.00     0.116 C 
ATOM     24  C   UNL     1     -18.511 -13.431  21.726  1.00  0.00     0.027 C 
ENDBRANCH  20  23
ENDBRANCH   7  18
BRANCH   1  25
ATOM     25  C   UNL     1     -16.317 -14.802  13.631  1.00  0.00     0.082 C 
ATOM     26  C   UNL     1     -17.679 -14.424  13.055  1.00  0.00     0.021 C 
ENDBRANCH   1  25
TORSDOF 4
ENDMDL
MODEL 19
REMARK VINA RESULT:    -7.876      2.068      4.055
REMARK INTER + INTRA:         -10.297
REMARK INTER:                  -9.891
REMARK INTRA:                  -0.407
REMARK UNBOUND:                -0.579
REMARK SMILES CCN(CC)C(=O)[C@@H]1C=C2c3cccc4[nH]cc(c34)C[C@H]2N(CC)C1
REMARK SMILES IDX 22 1 16 2 21 3 10 4 20 5 25 6 8 7 18 8 11 9 9 10 19 11 15 12
REMARK SMILES IDX 17 13 12 14 14 15 13 16 6 18 7 19 3 20 2 21 1 22 4 23 5 24
REMARK SMILES IDX 23 25 24 26
REMARK H PARENT 16 17
ROOT
ATOM      1  N   UNL     1     -11.952 -20.053  19.670  1.00  0.00    -0.295 NA
ATOM      2  N   UNL     1      -7.508 -20.184  23.770  1.00  0.00    -0.361 N 
ATOM      3  C   UNL     1     -11.109 -20.118  20.902  1.00  0.00     0.091 C 
ATOM      4  C   UNL     1     -11.626 -19.178  22.031  1.00  0.00    -0.026 C 
ATOM      5  C   UNL     1      -9.552 -19.959  20.687  1.00  0.00     0.061 C 
ATOM      6  C   UNL     1     -12.307 -18.660  19.352  1.00  0.00     0.102 C 
ATOM      7  C   UNL     1     -13.203 -18.064  20.459  1.00  0.00     0.116 C 
ATOM      8  C   UNL     1      -8.852 -20.001  22.009  1.00  0.00    -0.020 A 
ATOM      9  C   UNL     1     -10.910 -19.272  23.320  1.00  0.00    -0.011 A 
ATOM     10  C   UNL     1     -12.588 -18.259  21.826  1.00  0.00    -0.007 C 
ATOM     11  C   UNL     1      -9.571 -19.669  23.181  1.00  0.00     0.010 A 
ATOM     12  C   UNL     1      -8.730 -19.789  24.273  1.00  0.00     0.046 A 
ATOM     13  C   UNL     1      -7.571 -20.317  22.398  1.00  0.00     0.087 A 
ATOM     14  C   UNL     1     -11.375 -18.995  24.608  1.00  0.00     0.009 A 
ATOM     15  C   UNL     1      -9.176 -19.522  25.570  1.00  0.00     0.027 A 
ATOM     16  C   UNL     1     -10.518 -19.124  25.711  1.00  0.00     0.003 A 
ATOM     17  H   UNL     1      -6.684 -20.349  24.332  1.00  0.00     0.166 HD
ENDROOT
BRANCH   7  18
ATOM     18  C   UNL     1     -13.424 -16.571  20.145  1.00  0.00     0.230 C 
ATOM     19  O   UNL     1     -13.022 -15.699  20.921  1.00  0.00    -0.274 OA
ATOM     20  N   UNL     1     -14.054 -16.230  18.934  1.00  0.00    -0.343 N 
BRANCH  20  21
ATOM     21  C   UNL     1     -14.827 -17.201  18.142  1.00  0.00     0.116 C 
ATOM     22  C   UNL     1     -14.499 -17.240  16.656  1.00  0.00     0.027 C 
ENDBRANCH  20  21
BRANCH  20  23
ATOM     23  C   UNL     1     -14.333 -14.801  18.739  1.00  0.00     0.116 C 
ATOM     24  C   UNL     1     -15.769 -14.435  19.084  1.00  0.00     0.027 C 
ENDBRANCH  20  23
ENDBRANCH   7  18
BRANCH   1  25
ATOM     25  C   UNL     1     -11.374 -20.783  18.540  1.00  0.00     0.082 C 
ATOM     26  C   UNL     1     -11.779 -20.191  17.193  1.00  0.00     0.021 C 
ENDBRANCH   1  25
TORSDOF 4
ENDMDL
MODEL 20
REMARK VINA RESULT:    -7.868      3.086      7.863
REMARK INTER + INTRA:         -10.288
REMARK INTER:                  -9.962
REMARK INTRA:                  -0.326
REMARK UNBOUND:                -0.579
REMARK SMILES CCN(CC)C(=O)[C@@H]1C=C2c3cccc4[nH]cc(c34)C[C@H]2N(CC)C1
REMARK SMILES IDX 22 1 16 2 21 3 10 4 20 5 25 6 8 7 18 8 11 9 9 10 19 11 15 12
REMARK SMILES IDX 17 13 12 14 14 15 13 16 6 18 7 19 3 20 2 21 1 22 4 23 5 24
REMARK SMILES IDX 23 25 24 26
REMARK H PARENT 16 17
ROOT
ATOM      1  N   UNL     1     -15.755 -16.731  21.221  1.00  0.00    -0.295 NA
ATOM      2  N   UNL     1     -13.515 -14.228  16.191  1.00  0.00    -0.361 N 
ATOM      3  C   UNL     1     -15.132 -16.433  19.897  1.00  0.00     0.091 C 
ATOM      4  C   UNL     1     -13.778 -17.174  19.692  1.00  0.00    -0.026 C 
ATOM      5  C   UNL     1     -15.017 -14.905  19.511  1.00  0.00     0.061 C 
ATOM      6  C   UNL     1     -14.745 -16.709  22.291  1.00  0.00     0.102 C 
ATOM      7  C   UNL     1     -13.718 -17.844  22.089  1.00  0.00     0.116 C 
ATOM      8  C   UNL     1     -14.337 -14.767  18.186  1.00  0.00    -0.020 A 
ATOM      9  C   UNL     1     -13.158 -17.018  18.360  1.00  0.00    -0.011 A 
ATOM     10  C   UNL     1     -13.150 -17.826  20.688  1.00  0.00    -0.007 C 
ATOM     11  C   UNL     1     -13.493 -15.808  17.732  1.00  0.00     0.010 A 
ATOM     12  C   UNL     1     -12.989 -15.468  16.490  1.00  0.00     0.046 A 
ATOM     13  C   UNL     1     -14.335 -13.795  17.213  1.00  0.00     0.087 A 
ATOM     14  C   UNL     1     -12.287 -17.879  17.687  1.00  0.00     0.009 A 
ATOM     15  C   UNL     1     -12.122 -16.317  15.797  1.00  0.00     0.027 A 
ATOM     16  C   UNL     1     -11.784 -17.530  16.424  1.00  0.00     0.003 A 
ATOM     17  H   UNL     1     -13.323 -13.714  15.344  1.00  0.00     0.166 HD
ENDROOT
BRANCH   7  18
ATOM     18  C   UNL     1     -12.611 -17.686  23.150  1.00  0.00     0.230 C 
ATOM     19  O   UNL     1     -12.514 -16.645  23.808  1.00  0.00    -0.274 OA
ATOM     20  N   UNL     1     -11.748 -18.773  23.380  1.00  0.00    -0.343 N 
BRANCH  20  21
ATOM     21  C   UNL     1     -11.609 -19.889  22.431  1.00  0.00     0.116 C 
ATOM     22  C   UNL     1     -10.277 -19.960  21.697  1.00  0.00     0.027 C 
ENDBRANCH  20  21
BRANCH  20  23
ATOM     23  C   UNL     1     -10.649 -18.527  24.324  1.00  0.00     0.116 C 
ATOM     24  C   UNL     1     -10.808 -19.308  25.621  1.00  0.00     0.027 C 
ENDBRANCH  20  23
ENDBRANCH   7  18
BRANCH   1  25
ATOM     25  C   UNL     1     -16.927 -15.899  21.505  1.00  0.00     0.082 C 
ATOM     26  C   UNL     1     -18.181 -16.727  21.773  1.00  0.00     0.021 C 
ENDBRANCH   1  25
TORSDOF 4
ENDMDL
