MODEL 1
REMARK VINA RESULT:    -9.573      0.000      0.000
REMARK INTER + INTRA:         -12.287
REMARK INTER:                 -11.812
REMARK INTRA:                  -0.476
REMARK UNBOUND:                -0.476
REMARK SMILES CCN(CC)C(=O)[C@@H]1C=C2c3cccc4[nH]cc(c34)C[C@H]2N(CC)C1
REMARK SMILES IDX 22 1 16 2 21 3 10 4 20 5 25 6 8 7 18 8 11 9 9 10 19 11 15 12
REMARK SMILES IDX 17 13 12 14 14 15 13 16 6 18 7 19 3 20 2 21 1 22 4 23 5 24
REMARK SMILES IDX 23 25 24 26
REMARK H PARENT 16 17
ROOT
ATOM      1  N   UNL     1     -24.129 -13.642 145.234  1.00  0.00    -0.295 NA
ATOM      2  N   UNL     1     -29.150 -10.533 143.929  1.00  0.00    -0.361 N 
ATOM      3  C   UNL     1     -25.409 -12.872 145.247  1.00  0.00     0.091 C 
ATOM      4  C   UNL     1     -26.489 -13.523 146.161  1.00  0.00    -0.026 C 
ATOM      5  C   UNL     1     -26.004 -12.489 143.834  1.00  0.00     0.061 C 
ATOM      6  C   UNL     1     -24.388 -15.087 145.138  1.00  0.00     0.102 C 
ATOM      7  C   UNL     1     -25.123 -15.590 146.399  1.00  0.00     0.116 C 
ATOM      8  C   UNL     1     -27.301 -11.765 144.011  1.00  0.00    -0.020 A 
ATOM      9  C   UNL     1     -27.744 -12.758 146.313  1.00  0.00    -0.011 A 
ATOM     10  C   UNL     1     -26.345 -14.750 146.693  1.00  0.00    -0.007 C 
ATOM     11  C   UNL     1     -28.038 -11.950 145.204  1.00  0.00     0.010 A 
ATOM     12  C   UNL     1     -29.185 -11.178 145.148  1.00  0.00     0.046 A 
ATOM     13  C   UNL     1     -28.011 -10.881 143.232  1.00  0.00     0.087 A 
ATOM     14  C   UNL     1     -28.655 -12.762 147.373  1.00  0.00     0.009 A 
ATOM     15  C   UNL     1     -30.106 -11.164 146.198  1.00  0.00     0.027 A 
ATOM     16  C   UNL     1     -29.813 -11.972 147.312  1.00  0.00     0.003 A 
ATOM     17  H   UNL     1     -29.863  -9.898 143.597  1.00  0.00     0.166 HD
ENDROOT
BRANCH   7  18
ATOM     18  C   UNL     1     -25.492 -17.071 146.182  1.00  0.00     0.230 C 
ATOM     19  O   UNL     1     -26.632 -17.390 145.831  1.00  0.00    -0.274 OA
ATOM     20  N   UNL     1     -24.487 -18.041 146.351  1.00  0.00    -0.343 N 
BRANCH  20  21
ATOM     21  C   UNL     1     -23.230 -17.763 147.065  1.00  0.00     0.116 C 
ATOM     22  C   UNL     1     -23.365 -17.552 148.566  1.00  0.00     0.027 C 
ENDBRANCH  20  21
BRANCH  20  23
ATOM     23  C   UNL     1     -24.922 -19.439 146.235  1.00  0.00     0.116 C 
ATOM     24  C   UNL     1     -23.790 -20.371 145.829  1.00  0.00     0.027 C 
ENDBRANCH  20  23
ENDBRANCH   7  18
BRANCH   1  25
ATOM     25  C   UNL     1     -23.173 -13.150 144.238  1.00  0.00     0.082 C 
ATOM     26  C   UNL     1     -22.425 -11.907 144.710  1.00  0.00     0.021 C 
ENDBRANCH   1  25
TORSDOF 4
ENDMDL
MODEL 2
REMARK VINA RESULT:    -9.562      2.938      5.982
REMARK INTER + INTRA:         -12.273
REMARK INTER:                 -11.706
REMARK INTRA:                  -0.567
REMARK UNBOUND:                -0.476
REMARK SMILES CCN(CC)C(=O)[C@@H]1C=C2c3cccc4[nH]cc(c34)C[C@H]2N(CC)C1
REMARK SMILES IDX 22 1 16 2 21 3 10 4 20 5 25 6 8 7 18 8 11 9 9 10 19 11 15 12
REMARK SMILES IDX 17 13 12 14 14 15 13 16 6 18 7 19 3 20 2 21 1 22 4 23 5 24
REMARK SMILES IDX 23 25 24 26
REMARK H PARENT 16 17
ROOT
ATOM      1  N   UNL     1     -29.139 -11.156 144.710  1.00  0.00    -0.295 NA
ATOM      2  N   UNL     1     -29.590  -6.643 140.708  1.00  0.00    -0.361 N 
ATOM      3  C   UNL     1     -29.242 -10.292 143.495  1.00  0.00     0.091 C 
ATOM      4  C   UNL     1     -28.192 -10.663 142.407  1.00  0.00    -0.026 C 
ATOM      5  C   UNL     1     -29.279  -8.733 143.753  1.00  0.00     0.061 C 
ATOM      6  C   UNL     1     -27.732 -11.354 145.093  1.00  0.00     0.102 C 
ATOM      7  C   UNL     1     -26.979 -12.143 144.000  1.00  0.00     0.116 C 
ATOM      8  C   UNL     1     -29.337  -8.006 142.446  1.00  0.00    -0.020 A 
ATOM      9  C   UNL     1     -28.305  -9.927 141.131  1.00  0.00    -0.011 A 
ATOM     10  C   UNL     1     -27.178 -11.517 142.638  1.00  0.00    -0.007 C 
ATOM     11  C   UNL     1     -28.864  -8.648 141.277  1.00  0.00     0.010 A 
ATOM     12  C   UNL     1     -29.028  -7.796 140.200  1.00  0.00     0.046 A 
ATOM     13  C   UNL     1     -29.782  -6.761 142.070  1.00  0.00     0.087 A 
ATOM     14  C   UNL     1     -27.912 -10.320 139.849  1.00  0.00     0.009 A 
ATOM     15  C   UNL     1     -28.646  -8.171 138.909  1.00  0.00     0.027 A 
ATOM     16  C   UNL     1     -28.086  -9.453 138.759  1.00  0.00     0.003 A 
ATOM     17  H   UNL     1     -29.823  -5.829 140.157  1.00  0.00     0.166 HD
ENDROOT
BRANCH   7  18
ATOM     18  C   UNL     1     -25.488 -12.197 144.387  1.00  0.00     0.230 C 
ATOM     19  O   UNL     1     -24.787 -11.181 144.336  1.00  0.00    -0.274 OA
ATOM     20  N   UNL     1     -24.961 -13.420 144.841  1.00  0.00    -0.343 N 
BRANCH  20  21
ATOM     21  C   UNL     1     -25.642 -14.706 144.622  1.00  0.00     0.116 C 
ATOM     22  C   UNL     1     -25.257 -15.821 145.584  1.00  0.00     0.027 C 
ENDBRANCH  20  21
BRANCH  20  23
ATOM     23  C   UNL     1     -23.514 -13.438 145.093  1.00  0.00     0.116 C 
ATOM     24  C   UNL     1     -22.704 -13.667 143.826  1.00  0.00     0.027 C 
ENDBRANCH  20  23
ENDBRANCH   7  18
BRANCH   1  25
ATOM     25  C   UNL     1     -29.988 -10.699 145.813  1.00  0.00     0.082 C 
ATOM     26  C   UNL     1     -30.026 -11.692 146.971  1.00  0.00     0.021 C 
ENDBRANCH   1  25
TORSDOF 4
ENDMDL
MODEL 3
REMARK VINA RESULT:    -9.455      3.230      5.946
REMARK INTER + INTRA:         -12.142
REMARK INTER:                 -11.855
REMARK INTRA:                  -0.286
REMARK UNBOUND:                -0.476
REMARK SMILES CCN(CC)C(=O)[C@@H]1C=C2c3cccc4[nH]cc(c34)C[C@H]2N(CC)C1
REMARK SMILES IDX 22 1 16 2 21 3 10 4 20 5 25 6 8 7 18 8 11 9 9 10 19 11 15 12
REMARK SMILES IDX 17 13 12 14 14 15 13 16 6 18 7 19 3 20 2 21 1 22 4 23 5 24
REMARK SMILES IDX 23 25 24 26
REMARK H PARENT 16 17
ROOT
ATOM      1  N   UNL     1     -27.663 -16.191 146.114  1.00  0.00    -0.295 NA
ATOM      2  N   UNL     1     -30.766 -15.858 151.296  1.00  0.00    -0.361 N 
ATOM      3  C   UNL     1     -28.648 -15.930 147.208  1.00  0.00     0.091 C 
ATOM      4  C   UNL     1     -29.084 -14.437 147.277  1.00  0.00    -0.026 C 
ATOM      5  C   UNL     1     -28.262 -16.485 148.637  1.00  0.00     0.061 C 
ATOM      6  C   UNL     1     -26.643 -15.131 146.066  1.00  0.00     0.102 C 
ATOM      7  C   UNL     1     -27.284 -13.779 145.688  1.00  0.00     0.116 C 
ATOM      8  C   UNL     1     -29.318 -16.109 149.627  1.00  0.00    -0.020 A 
ATOM      9  C   UNL     1     -30.142 -14.124 148.261  1.00  0.00    -0.011 A 
ATOM     10  C   UNL     1     -28.471 -13.469 146.572  1.00  0.00    -0.007 C 
ATOM     11  C   UNL     1     -30.149 -14.995 149.361  1.00  0.00     0.010 A 
ATOM     12  C   UNL     1     -31.049 -14.848 150.401  1.00  0.00     0.046 A 
ATOM     13  C   UNL     1     -29.718 -16.630 150.836  1.00  0.00     0.087 A 
ATOM     14  C   UNL     1     -31.080 -13.089 148.246  1.00  0.00     0.009 A 
ATOM     15  C   UNL     1     -31.999 -13.823 150.404  1.00  0.00     0.027 A 
ATOM     16  C   UNL     1     -31.993 -12.948 149.302  1.00  0.00     0.003 A 
ATOM     17  H   UNL     1     -31.257 -16.007 152.166  1.00  0.00     0.166 HD
ENDROOT
BRANCH   7  18
ATOM     18  C   UNL     1     -26.201 -12.687 145.791  1.00  0.00     0.230 C 
ATOM     19  O   UNL     1     -26.227 -11.860 146.707  1.00  0.00    -0.274 OA
ATOM     20  N   UNL     1     -25.161 -12.688 144.843  1.00  0.00    -0.343 N 
BRANCH  20  21
ATOM     21  C   UNL     1     -25.248 -13.426 143.572  1.00  0.00     0.116 C 
ATOM     22  C   UNL     1     -26.367 -12.987 142.638  1.00  0.00     0.027 C 
ENDBRANCH  20  21
BRANCH  20  23
ATOM     23  C   UNL     1     -24.219 -11.564 144.927  1.00  0.00     0.116 C 
ATOM     24  C   UNL     1     -22.768 -12.009 144.816  1.00  0.00     0.027 C 
ENDBRANCH  20  23
ENDBRANCH   7  18
BRANCH   1  25
ATOM     25  C   UNL     1     -27.102 -17.543 146.157  1.00  0.00     0.082 C 
ATOM     26  C   UNL     1     -25.580 -17.541 146.261  1.00  0.00     0.021 C 
ENDBRANCH   1  25
TORSDOF 4
ENDMDL
MODEL 4
REMARK VINA RESULT:    -9.376      2.310      7.475
REMARK INTER + INTRA:         -12.045
REMARK INTER:                 -11.911
REMARK INTRA:                  -0.134
REMARK UNBOUND:                -0.476
REMARK SMILES CCN(CC)C(=O)[C@@H]1C=C2c3cccc4[nH]cc(c34)C[C@H]2N(CC)C1
REMARK SMILES IDX 22 1 16 2 21 3 10 4 20 5 25 6 8 7 18 8 11 9 9 10 19 11 15 12
REMARK SMILES IDX 17 13 12 14 14 15 13 16 6 18 7 19 3 20 2 21 1 22 4 23 5 24
REMARK SMILES IDX 23 25 24 26
REMARK H PARENT 16 17
ROOT
ATOM      1  N   UNL     1     -28.016 -12.029 146.247  1.00  0.00    -0.295 NA
ATOM      2  N   UNL     1     -26.551 -17.894 146.453  1.00  0.00    -0.361 N 
ATOM      3  C   UNL     1     -27.339 -13.361 146.263  1.00  0.00     0.091 C 
ATOM      4  C   UNL     1     -26.300 -13.518 145.114  1.00  0.00    -0.026 C 
ATOM      5  C   UNL     1     -28.288 -14.621 146.360  1.00  0.00     0.061 C 
ATOM      6  C   UNL     1     -28.386 -11.648 144.874  1.00  0.00     0.102 C 
ATOM      7  C   UNL     1     -27.122 -11.444 144.010  1.00  0.00     0.116 C 
ATOM      8  C   UNL     1     -27.470 -15.874 146.321  1.00  0.00    -0.020 A 
ATOM      9  C   UNL     1     -25.509 -14.766 145.133  1.00  0.00    -0.011 A 
ATOM     10  C   UNL     1     -26.197 -12.635 144.104  1.00  0.00    -0.007 C 
ATOM     11  C   UNL     1     -26.184 -15.840 145.733  1.00  0.00     0.010 A 
ATOM     12  C   UNL     1     -25.616 -17.099 145.823  1.00  0.00     0.046 A 
ATOM     13  C   UNL     1     -27.679 -17.160 146.761  1.00  0.00     0.087 A 
ATOM     14  C   UNL     1     -24.232 -15.007 144.620  1.00  0.00     0.009 A 
ATOM     15  C   UNL     1     -24.339 -17.360 145.321  1.00  0.00     0.027 A 
ATOM     16  C   UNL     1     -23.660 -16.285 144.719  1.00  0.00     0.003 A 
ATOM     17  H   UNL     1     -26.424 -18.875 146.657  1.00  0.00     0.166 HD
ENDROOT
BRANCH   7  18
ATOM     18  C   UNL     1     -27.569 -11.186 142.558  1.00  0.00     0.230 C 
ATOM     19  O   UNL     1     -27.188 -11.922 141.642  1.00  0.00    -0.274 OA
ATOM     20  N   UNL     1     -28.457 -10.123 142.312  1.00  0.00    -0.343 N 
BRANCH  20  21
ATOM     21  C   UNL     1     -28.685  -9.040 143.283  1.00  0.00     0.116 C 
ATOM     22  C   UNL     1     -30.132  -8.845 143.715  1.00  0.00     0.027 C 
ENDBRANCH  20  21
BRANCH  20  23
ATOM     23  C   UNL     1     -28.763  -9.860 140.899  1.00  0.00     0.116 C 
ATOM     24  C   UNL     1     -28.735  -8.376 140.562  1.00  0.00     0.027 C 
ENDBRANCH  20  23
ENDBRANCH   7  18
BRANCH   1  25
ATOM     25  C   UNL     1     -29.125 -11.937 147.199  1.00  0.00     0.082 C 
ATOM     26  C   UNL     1     -30.325 -11.185 146.628  1.00  0.00     0.021 C 
ENDBRANCH   1  25
TORSDOF 4
ENDMDL
MODEL 5
REMARK VINA RESULT:    -9.085      2.203      3.324
REMARK INTER + INTRA:         -11.685
REMARK INTER:                 -11.249
REMARK INTRA:                  -0.435
REMARK UNBOUND:                -0.476
REMARK SMILES CCN(CC)C(=O)[C@@H]1C=C2c3cccc4[nH]cc(c34)C[C@H]2N(CC)C1
REMARK SMILES IDX 22 1 16 2 21 3 10 4 20 5 25 6 8 7 18 8 11 9 9 10 19 11 15 12
REMARK SMILES IDX 17 13 12 14 14 15 13 16 6 18 7 19 3 20 2 21 1 22 4 23 5 24
REMARK SMILES IDX 23 25 24 26
REMARK H PARENT 16 17
ROOT
ATOM      1  N   UNL     1     -25.601 -12.853 144.838  1.00  0.00    -0.295 NA
ATOM      2  N   UNL     1     -29.032  -9.742 140.948  1.00  0.00    -0.361 N 
ATOM      3  C   UNL     1     -26.515 -11.893 144.147  1.00  0.00     0.091 C 
ATOM      4  C   UNL     1     -27.833 -11.647 144.940  1.00  0.00    -0.026 C 
ATOM      5  C   UNL     1     -26.805 -12.186 142.622  1.00  0.00     0.061 C 
ATOM      6  C   UNL     1     -26.355 -13.999 145.373  1.00  0.00     0.102 C 
ATOM      7  C   UNL     1     -27.329 -13.538 146.478  1.00  0.00     0.116 C 
ATOM      8  C   UNL     1     -27.765 -11.171 142.086  1.00  0.00    -0.020 A 
ATOM      9  C   UNL     1     -28.736 -10.622 144.375  1.00  0.00    -0.011 A 
ATOM     10  C   UNL     1     -28.187 -12.386 146.006  1.00  0.00    -0.007 C 
ATOM     11  C   UNL     1     -28.621 -10.490 142.983  1.00  0.00     0.010 A 
ATOM     12  C   UNL     1     -29.403  -9.600 142.269  1.00  0.00     0.046 A 
ATOM     13  C   UNL     1     -28.037 -10.691 140.826  1.00  0.00     0.087 A 
ATOM     14  C   UNL     1     -29.677  -9.822 145.028  1.00  0.00     0.009 A 
ATOM     15  C   UNL     1     -30.346  -8.786 142.902  1.00  0.00     0.027 A 
ATOM     16  C   UNL     1     -30.464  -8.917 144.298  1.00  0.00     0.003 A 
ATOM     17  H   UNL     1     -29.435  -9.223 140.181  1.00  0.00     0.166 HD
ENDROOT
BRANCH   7  18
ATOM     18  C   UNL     1     -28.186 -14.748 146.900  1.00  0.00     0.230 C 
ATOM     19  O   UNL     1     -29.390 -14.791 146.629  1.00  0.00    -0.274 OA
ATOM     20  N   UNL     1     -27.551 -15.817 147.558  1.00  0.00    -0.343 N 
BRANCH  20  21
ATOM     21  C   UNL     1     -26.224 -15.688 148.182  1.00  0.00     0.116 C 
ATOM     22  C   UNL     1     -25.212 -16.756 147.791  1.00  0.00     0.027 C 
ENDBRANCH  20  21
BRANCH  20  23
ATOM     23  C   UNL     1     -28.435 -16.892 148.029  1.00  0.00     0.116 C 
ATOM     24  C   UNL     1     -28.786 -16.755 149.503  1.00  0.00     0.027 C 
ENDBRANCH  20  23
ENDBRANCH   7  18
BRANCH   1  25
ATOM     25  C   UNL     1     -24.450 -13.239 144.020  1.00  0.00     0.082 C 
ATOM     26  C   UNL     1     -23.138 -12.665 144.549  1.00  0.00     0.021 C 
ENDBRANCH   1  25
TORSDOF 4
ENDMDL
MODEL 6
REMARK VINA RESULT:    -8.927      3.076      6.683
REMARK INTER + INTRA:         -11.491
REMARK INTER:                 -10.824
REMARK INTRA:                  -0.667
REMARK UNBOUND:                -0.476
REMARK SMILES CCN(CC)C(=O)[C@@H]1C=C2c3cccc4[nH]cc(c34)C[C@H]2N(CC)C1
REMARK SMILES IDX 22 1 16 2 21 3 10 4 20 5 25 6 8 7 18 8 11 9 9 10 19 11 15 12
REMARK SMILES IDX 17 13 12 14 14 15 13 16 6 18 7 19 3 20 2 21 1 22 4 23 5 24
REMARK SMILES IDX 23 25 24 26
REMARK H PARENT 16 17
ROOT
ATOM      1  N   UNL     1     -24.648 -17.041 146.557  1.00  0.00    -0.295 NA
ATOM      2  N   UNL     1     -27.314 -18.070 151.888  1.00  0.00    -0.361 N 
ATOM      3  C   UNL     1     -25.591 -17.262 147.695  1.00  0.00     0.091 C 
ATOM      4  C   UNL     1     -26.725 -16.196 147.747  1.00  0.00    -0.026 C 
ATOM      5  C   UNL     1     -24.930 -17.470 149.115  1.00  0.00     0.061 C 
ATOM      6  C   UNL     1     -24.313 -15.613 146.426  1.00  0.00     0.102 C 
ATOM      7  C   UNL     1     -25.566 -14.796 146.046  1.00  0.00     0.116 C 
ATOM      8  C   UNL     1     -25.997 -17.634 150.150  1.00  0.00    -0.020 A 
ATOM      9  C   UNL     1     -27.762 -16.415 148.778  1.00  0.00    -0.011 A 
ATOM     10  C   UNL     1     -26.715 -15.088 146.984  1.00  0.00    -0.007 C 
ATOM     11  C   UNL     1     -27.288 -17.112 149.899  1.00  0.00     0.010 A 
ATOM     12  C   UNL     1     -28.103 -17.391 150.982  1.00  0.00     0.046 A 
ATOM     13  C   UNL     1     -26.035 -18.224 151.392  1.00  0.00     0.087 A 
ATOM     14  C   UNL     1     -29.097 -16.003 148.786  1.00  0.00     0.009 A 
ATOM     15  C   UNL     1     -29.442 -16.992 151.009  1.00  0.00     0.027 A 
ATOM     16  C   UNL     1     -29.919 -16.293 149.885  1.00  0.00     0.003 A 
ATOM     17  H   UNL     1     -27.632 -18.404 152.786  1.00  0.00     0.166 HD
ENDROOT
BRANCH   7  18
ATOM     18  C   UNL     1     -25.189 -13.302 146.062  1.00  0.00     0.230 C 
ATOM     19  O   UNL     1     -24.480 -12.840 146.962  1.00  0.00    -0.274 OA
ATOM     20  N   UNL     1     -25.634 -12.491 145.001  1.00  0.00    -0.343 N 
BRANCH  20  21
ATOM     21  C   UNL     1     -26.721 -12.896 144.096  1.00  0.00     0.116 C 
ATOM     22  C   UNL     1     -26.281 -13.374 142.719  1.00  0.00     0.027 C 
ENDBRANCH  20  21
BRANCH  20  23
ATOM     23  C   UNL     1     -25.334 -11.058 145.124  1.00  0.00     0.116 C 
ATOM     24  C   UNL     1     -26.523 -10.180 144.762  1.00  0.00     0.027 C 
ENDBRANCH  20  23
ENDBRANCH   7  18
BRANCH   1  25
ATOM     25  C   UNL     1     -23.474 -17.916 146.606  1.00  0.00     0.082 C 
ATOM     26  C   UNL     1     -23.775 -19.324 146.101  1.00  0.00     0.021 C 
ENDBRANCH   1  25
TORSDOF 4
ENDMDL
MODEL 7
REMARK VINA RESULT:    -8.804      2.674      6.659
REMARK INTER + INTRA:         -11.338
REMARK INTER:                 -11.040
REMARK INTRA:                  -0.298
REMARK UNBOUND:                -0.476
REMARK SMILES CCN(CC)C(=O)[C@@H]1C=C2c3cccc4[nH]cc(c34)C[C@H]2N(CC)C1
REMARK SMILES IDX 22 1 16 2 21 3 10 4 20 5 25 6 8 7 18 8 11 9 9 10 19 11 15 12
REMARK SMILES IDX 17 13 12 14 14 15 13 16 6 18 7 19 3 20 2 21 1 22 4 23 5 24
REMARK SMILES IDX 23 25 24 26
REMARK H PARENT 16 17
ROOT
ATOM      1  N   UNL     1     -25.468 -14.988 145.036  1.00  0.00    -0.295 NA
ATOM      2  N   UNL     1     -25.775 -17.376 150.585  1.00  0.00    -0.361 N 
ATOM      3  C   UNL     1     -25.852 -15.672 146.308  1.00  0.00     0.091 C 
ATOM      4  C   UNL     1     -27.268 -15.256 146.806  1.00  0.00    -0.026 C 
ATOM      5  C   UNL     1     -24.790 -15.615 147.476  1.00  0.00     0.061 C 
ATOM      6  C   UNL     1     -25.836 -13.563 145.077  1.00  0.00     0.102 C 
ATOM      7  C   UNL     1     -27.370 -13.402 145.147  1.00  0.00     0.116 C 
ATOM      8  C   UNL     1     -25.335 -16.301 148.689  1.00  0.00    -0.020 A 
ATOM      9  C   UNL     1     -27.764 -15.977 147.997  1.00  0.00    -0.011 A 
ATOM     10  C   UNL     1     -27.957 -14.236 146.264  1.00  0.00    -0.007 C 
ATOM     11  C   UNL     1     -26.736 -16.425 148.840  1.00  0.00     0.010 A 
ATOM     12  C   UNL     1     -27.002 -17.099 150.019  1.00  0.00     0.046 A 
ATOM     13  C   UNL     1     -24.757 -16.897 149.785  1.00  0.00     0.087 A 
ATOM     14  C   UNL     1     -29.081 -16.230 148.388  1.00  0.00     0.009 A 
ATOM     15  C   UNL     1     -28.312 -17.366 150.426  1.00  0.00     0.027 A 
ATOM     16  C   UNL     1     -29.344 -16.918 149.583  1.00  0.00     0.003 A 
ATOM     17  H   UNL     1     -25.645 -17.860 151.462  1.00  0.00     0.166 HD
ENDROOT
BRANCH   7  18
ATOM     18  C   UNL     1     -27.689 -11.905 145.330  1.00  0.00     0.230 C 
ATOM     19  O   UNL     1     -27.950 -11.449 146.447  1.00  0.00    -0.274 OA
ATOM     20  N   UNL     1     -27.629 -11.068 144.201  1.00  0.00    -0.343 N 
BRANCH  20  21
ATOM     21  C   UNL     1     -27.643 -11.592 142.825  1.00  0.00     0.116 C 
ATOM     22  C   UNL     1     -27.818 -10.548 141.731  1.00  0.00     0.027 C 
ENDBRANCH  20  21
BRANCH  20  23
ATOM     23  C   UNL     1     -28.045  -9.676 144.415  1.00  0.00     0.116 C 
ATOM     24  C   UNL     1     -29.556  -9.530 144.533  1.00  0.00     0.027 C 
ENDBRANCH  20  23
ENDBRANCH   7  18
BRANCH   1  25
ATOM     25  C   UNL     1     -24.072 -15.221 144.658  1.00  0.00     0.082 C 
ATOM     26  C   UNL     1     -23.364 -13.943 144.218  1.00  0.00     0.021 C 
ENDBRANCH   1  25
TORSDOF 4
ENDMDL
MODEL 8
REMARK VINA RESULT:    -8.707      2.785      8.042
REMARK INTER + INTRA:         -11.219
REMARK INTER:                 -10.764
REMARK INTRA:                  -0.455
REMARK UNBOUND:                -0.476
REMARK SMILES CCN(CC)C(=O)[C@@H]1C=C2c3cccc4[nH]cc(c34)C[C@H]2N(CC)C1
REMARK SMILES IDX 22 1 16 2 21 3 10 4 20 5 25 6 8 7 18 8 11 9 9 10 19 11 15 12
REMARK SMILES IDX 17 13 12 14 14 15 13 16 6 18 7 19 3 20 2 21 1 22 4 23 5 24
REMARK SMILES IDX 23 25 24 26
REMARK H PARENT 16 17
ROOT
ATOM      1  N   UNL     1     -29.100 -11.410 146.448  1.00  0.00    -0.295 NA
ATOM      2  N   UNL     1     -24.256 -14.882 145.412  1.00  0.00    -0.361 N 
ATOM      3  C   UNL     1     -27.736 -11.976 146.218  1.00  0.00     0.091 C 
ATOM      4  C   UNL     1     -26.919 -11.160 145.173  1.00  0.00    -0.026 C 
ATOM      5  C   UNL     1     -27.668 -13.526 145.920  1.00  0.00     0.061 C 
ATOM      6  C   UNL     1     -29.727 -11.024 145.174  1.00  0.00     0.102 C 
ATOM      7  C   UNL     1     -28.943  -9.870 144.513  1.00  0.00     0.116 C 
ATOM      8  C   UNL     1     -26.250 -13.931 145.669  1.00  0.00    -0.020 A 
ATOM      9  C   UNL     1     -25.519 -11.592 144.976  1.00  0.00    -0.011 A 
ATOM     10  C   UNL     1     -27.470 -10.194 144.415  1.00  0.00    -0.007 C 
ATOM     11  C   UNL     1     -25.320 -12.956 145.236  1.00  0.00     0.010 A 
ATOM     12  C   UNL     1     -24.082 -13.554 145.083  1.00  0.00     0.046 A 
ATOM     13  C   UNL     1     -25.567 -15.121 145.770  1.00  0.00     0.087 A 
ATOM     14  C   UNL     1     -24.418 -10.844 144.551  1.00  0.00     0.009 A 
ATOM     15  C   UNL     1     -22.967 -12.824 144.663  1.00  0.00     0.027 A 
ATOM     16  C   UNL     1     -23.164 -11.456 144.402  1.00  0.00     0.003 A 
ATOM     17  H   UNL     1     -23.524 -15.578 145.390  1.00  0.00     0.166 HD
ENDROOT
BRANCH   7  18
ATOM     18  C   UNL     1     -29.558  -9.604 143.125  1.00  0.00     0.230 C 
ATOM     19  O   UNL     1     -30.089 -10.518 142.486  1.00  0.00    -0.274 OA
ATOM     20  N   UNL     1     -29.538  -8.288 142.628  1.00  0.00    -0.343 N 
BRANCH  20  21
ATOM     21  C   UNL     1     -28.657  -7.246 143.179  1.00  0.00     0.116 C 
ATOM     22  C   UNL     1     -29.022  -5.816 142.804  1.00  0.00     0.027 C 
ENDBRANCH  20  21
BRANCH  20  23
ATOM     23  C   UNL     1     -30.041  -8.114 141.259  1.00  0.00     0.116 C 
ATOM     24  C   UNL     1     -28.963  -8.338 140.208  1.00  0.00     0.027 C 
ENDBRANCH  20  23
ENDBRANCH   7  18
BRANCH   1  25
ATOM     25  C   UNL     1     -29.944 -12.270 147.280  1.00  0.00     0.082 C 
ATOM     26  C   UNL     1     -31.256 -11.597 147.673  1.00  0.00     0.021 C 
ENDBRANCH   1  25
TORSDOF 4
ENDMDL
MODEL 9
REMARK VINA RESULT:    -8.612      2.790      7.372
REMARK INTER + INTRA:         -11.102
REMARK INTER:                 -11.841
REMARK INTRA:                   0.739
REMARK UNBOUND:                -0.476
REMARK SMILES CCN(CC)C(=O)[C@@H]1C=C2c3cccc4[nH]cc(c34)C[C@H]2N(CC)C1
REMARK SMILES IDX 22 1 16 2 21 3 10 4 20 5 25 6 8 7 18 8 11 9 9 10 19 11 15 12
REMARK SMILES IDX 17 13 12 14 14 15 13 16 6 18 7 19 3 20 2 21 1 22 4 23 5 24
REMARK SMILES IDX 23 25 24 26
REMARK H PARENT 16 17
ROOT
ATOM      1  N   UNL     1     -28.683 -12.446 146.927  1.00  0.00    -0.295 NA
ATOM      2  N   UNL     1     -23.891 -15.309 144.597  1.00  0.00    -0.361 N 
ATOM      3  C   UNL     1     -27.336 -12.871 146.438  1.00  0.00     0.091 C 
ATOM      4  C   UNL     1     -26.641 -11.776 145.576  1.00  0.00    -0.026 C 
ATOM      5  C   UNL     1     -27.265 -14.286 145.739  1.00  0.00     0.061 C 
ATOM      6  C   UNL     1     -29.438 -11.772 145.859  1.00  0.00     0.102 C 
ATOM      7  C   UNL     1     -28.745 -10.452 145.457  1.00  0.00     0.116 C 
ATOM      8  C   UNL     1     -25.870 -14.548 145.268  1.00  0.00    -0.020 A 
ATOM      9  C   UNL     1     -25.258 -12.079 145.151  1.00  0.00    -0.011 A 
ATOM     10  C   UNL     1     -27.282 -10.673 145.148  1.00  0.00    -0.007 C 
ATOM     11  C   UNL     1     -25.006 -13.453 145.026  1.00  0.00     0.010 A 
ATOM     12  C   UNL     1     -23.776 -13.935 144.613  1.00  0.00     0.046 A 
ATOM     13  C   UNL     1     -25.156 -15.692 144.994  1.00  0.00     0.087 A 
ATOM     14  C   UNL     1     -24.219 -11.198 144.841  1.00  0.00     0.009 A 
ATOM     15  C   UNL     1     -22.722 -13.071 144.303  1.00  0.00     0.027 A 
ATOM     16  C   UNL     1     -22.972 -11.692 144.429  1.00  0.00     0.003 A 
ATOM     17  H   UNL     1     -23.150 -15.942 144.330  1.00  0.00     0.166 HD
ENDROOT
BRANCH   7  18
ATOM     18  C   UNL     1     -29.496  -9.864 144.246  1.00  0.00     0.230 C 
ATOM     19  O   UNL     1     -30.550  -9.238 144.402  1.00  0.00    -0.274 OA
ATOM     20  N   UNL     1     -28.927 -10.019 142.969  1.00  0.00    -0.343 N 
BRANCH  20  21
ATOM     21  C   UNL     1     -27.873 -11.006 142.686  1.00  0.00     0.116 C 
ATOM     22  C   UNL     1     -27.729 -11.408 141.225  1.00  0.00     0.027 C 
ENDBRANCH  20  21
BRANCH  20  23
ATOM     23  C   UNL     1     -29.739  -9.533 141.845  1.00  0.00     0.116 C 
ATOM     24  C   UNL     1     -29.325  -8.142 141.385  1.00  0.00     0.027 C 
ENDBRANCH  20  23
ENDBRANCH   7  18
BRANCH   1  25
ATOM     25  C   UNL     1     -29.426 -13.530 147.575  1.00  0.00     0.082 C 
ATOM     26  C   UNL     1     -30.593 -13.017 148.414  1.00  0.00     0.021 C 
ENDBRANCH   1  25
TORSDOF 4
ENDMDL
MODEL 10
REMARK VINA RESULT:    -8.524      2.581      6.633
REMARK INTER + INTRA:         -10.993
REMARK INTER:                 -10.373
REMARK INTRA:                  -0.621
REMARK UNBOUND:                -0.476
REMARK SMILES CCN(CC)C(=O)[C@@H]1C=C2c3cccc4[nH]cc(c34)C[C@H]2N(CC)C1
REMARK SMILES IDX 22 1 16 2 21 3 10 4 20 5 25 6 8 7 18 8 11 9 9 10 19 11 15 12
REMARK SMILES IDX 17 13 12 14 14 15 13 16 6 18 7 19 3 20 2 21 1 22 4 23 5 24
REMARK SMILES IDX 23 25 24 26
REMARK H PARENT 16 17
ROOT
ATOM      1  N   UNL     1     -25.145 -14.229 144.505  1.00  0.00    -0.295 NA
ATOM      2  N   UNL     1     -25.686 -16.846 149.931  1.00  0.00    -0.361 N 
ATOM      3  C   UNL     1     -25.579 -14.974 145.726  1.00  0.00     0.091 C 
ATOM      4  C   UNL     1     -27.031 -14.617 146.160  1.00  0.00    -0.026 C 
ATOM      5  C   UNL     1     -24.584 -14.936 146.953  1.00  0.00     0.061 C 
ATOM      6  C   UNL     1     -25.557 -12.818 144.580  1.00  0.00     0.102 C 
ATOM      7  C   UNL     1     -27.096 -12.702 144.571  1.00  0.00     0.116 C 
ATOM      8  C   UNL     1     -25.174 -15.684 148.106  1.00  0.00    -0.020 A 
ATOM      9  C   UNL     1     -27.570 -15.398 147.292  1.00  0.00    -0.011 A 
ATOM     10  C   UNL     1     -27.719 -13.595 145.620  1.00  0.00    -0.007 C 
ATOM     11  C   UNL     1     -26.578 -15.853 148.174  1.00  0.00     0.010 A 
ATOM     12  C   UNL     1     -26.888 -16.580 149.309  1.00  0.00     0.046 A 
ATOM     13  C   UNL     1     -24.640 -16.308 149.209  1.00  0.00     0.087 A 
ATOM     14  C   UNL     1     -28.899 -15.702 147.599  1.00  0.00     0.009 A 
ATOM     15  C   UNL     1     -28.209 -16.899 149.632  1.00  0.00     0.027 A 
ATOM     16  C   UNL     1     -29.207 -16.444 148.750  1.00  0.00     0.003 A 
ATOM     17  H   UNL     1     -25.590 -17.361 150.795  1.00  0.00     0.166 HD
ENDROOT
BRANCH   7  18
ATOM     18  C   UNL     1     -27.468 -11.223 144.793  1.00  0.00     0.230 C 
ATOM     19  O   UNL     1     -27.420 -10.724 145.922  1.00  0.00    -0.274 OA
ATOM     20  N   UNL     1     -27.818 -10.447 143.672  1.00  0.00    -0.343 N 
BRANCH  20  21
ATOM     21  C   UNL     1     -28.199 -11.046 142.382  1.00  0.00     0.116 C 
ATOM     22  C   UNL     1     -28.112 -10.117 141.180  1.00  0.00     0.027 C 
ENDBRANCH  20  21
BRANCH  20  23
ATOM     23  C   UNL     1     -28.265  -9.077 143.957  1.00  0.00     0.116 C 
ATOM     24  C   UNL     1     -29.772  -8.982 144.145  1.00  0.00     0.027 C 
ENDBRANCH  20  23
ENDBRANCH   7  18
BRANCH   1  25
ATOM     25  C   UNL     1     -23.725 -14.410 144.196  1.00  0.00     0.082 C 
ATOM     26  C   UNL     1     -22.948 -13.097 144.231  1.00  0.00     0.021 C 
ENDBRANCH   1  25
TORSDOF 4
ENDMDL
MODEL 11
REMARK VINA RESULT:    -8.444      4.520      6.793
REMARK INTER + INTRA:         -10.894
REMARK INTER:                 -10.333
REMARK INTRA:                  -0.561
REMARK UNBOUND:                -0.476
REMARK SMILES CCN(CC)C(=O)[C@@H]1C=C2c3cccc4[nH]cc(c34)C[C@H]2N(CC)C1
REMARK SMILES IDX 22 1 16 2 21 3 10 4 20 5 25 6 8 7 18 8 11 9 9 10 19 11 15 12
REMARK SMILES IDX 17 13 12 14 14 15 13 16 6 18 7 19 3 20 2 21 1 22 4 23 5 24
REMARK SMILES IDX 23 25 24 26
REMARK H PARENT 16 17
ROOT
ATOM      1  N   UNL     1     -28.293 -18.626 151.087  1.00  0.00    -0.295 NA
ATOM      2  N   UNL     1     -32.206 -14.018 150.874  1.00  0.00    -0.361 N 
ATOM      3  C   UNL     1     -29.211 -17.511 150.701  1.00  0.00     0.091 C 
ATOM      4  C   UNL     1     -28.564 -16.530 149.679  1.00  0.00    -0.026 C 
ATOM      5  C   UNL     1     -29.898 -16.733 151.892  1.00  0.00     0.061 C 
ATOM      6  C   UNL     1     -26.931 -18.122 151.323  1.00  0.00     0.102 C 
ATOM      7  C   UNL     1     -26.325 -17.565 150.016  1.00  0.00     0.116 C 
ATOM      8  C   UNL     1     -30.746 -15.626 151.351  1.00  0.00    -0.020 A 
ATOM      9  C   UNL     1     -29.452 -15.467 149.164  1.00  0.00    -0.011 A 
ATOM     10  C   UNL     1     -27.258 -16.571 149.361  1.00  0.00    -0.007 C 
ATOM     11  C   UNL     1     -30.463 -15.105 150.066  1.00  0.00     0.010 A 
ATOM     12  C   UNL     1     -31.378 -14.108 149.775  1.00  0.00     0.046 A 
ATOM     13  C   UNL     1     -31.832 -14.935 151.835  1.00  0.00     0.087 A 
ATOM     14  C   UNL     1     -29.391 -14.781 147.948  1.00  0.00     0.009 A 
ATOM     15  C   UNL     1     -31.338 -13.414 148.563  1.00  0.00     0.027 A 
ATOM     16  C   UNL     1     -30.324 -13.775 147.656  1.00  0.00     0.003 A 
ATOM     17  H   UNL     1     -32.975 -13.368 150.959  1.00  0.00     0.166 HD
ENDROOT
BRANCH   7  18
ATOM     18  C   UNL     1     -24.963 -16.927 150.351  1.00  0.00     0.230 C 
ATOM     19  O   UNL     1     -24.847 -16.157 151.310  1.00  0.00    -0.274 OA
ATOM     20  N   UNL     1     -23.850 -17.280 149.566  1.00  0.00    -0.343 N 
BRANCH  20  21
ATOM     21  C   UNL     1     -23.982 -17.921 148.247  1.00  0.00     0.116 C 
ATOM     22  C   UNL     1     -24.153 -16.967 147.073  1.00  0.00     0.027 C 
ENDBRANCH  20  21
BRANCH  20  23
ATOM     23  C   UNL     1     -22.604 -16.562 149.864  1.00  0.00     0.116 C 
ATOM     24  C   UNL     1     -21.871 -17.138 151.067  1.00  0.00     0.027 C 
ENDBRANCH  20  23
ENDBRANCH   7  18
BRANCH   1  25
ATOM     25  C   UNL     1     -28.814 -19.444 152.184  1.00  0.00     0.082 C 
ATOM     26  C   UNL     1     -27.712 -19.943 153.114  1.00  0.00     0.021 C 
ENDBRANCH   1  25
TORSDOF 4
ENDMDL
MODEL 12
REMARK VINA RESULT:    -8.317      3.395      6.512
REMARK INTER + INTRA:         -10.737
REMARK INTER:                  -9.979
REMARK INTRA:                  -0.759
REMARK UNBOUND:                -0.476
REMARK SMILES CCN(CC)C(=O)[C@@H]1C=C2c3cccc4[nH]cc(c34)C[C@H]2N(CC)C1
REMARK SMILES IDX 22 1 16 2 21 3 10 4 20 5 25 6 8 7 18 8 11 9 9 10 19 11 15 12
REMARK SMILES IDX 17 13 12 14 14 15 13 16 6 18 7 19 3 20 2 21 1 22 4 23 5 24
REMARK SMILES IDX 23 25 24 26
REMARK H PARENT 16 17
ROOT
ATOM      1  N   UNL     1     -27.118 -16.373 146.156  1.00  0.00    -0.295 NA
ATOM      2  N   UNL     1     -29.639 -16.970 151.622  1.00  0.00    -0.361 N 
ATOM      3  C   UNL     1     -28.011 -16.384 147.355  1.00  0.00     0.091 C 
ATOM      4  C   UNL     1     -28.740 -15.026 147.571  1.00  0.00    -0.026 C 
ATOM      5  C   UNL     1     -27.364 -16.911 148.697  1.00  0.00     0.061 C 
ATOM      6  C   UNL     1     -26.354 -15.117 146.086  1.00  0.00     0.102 C 
ATOM      7  C   UNL     1     -27.302 -13.918 145.867  1.00  0.00     0.116 C 
ATOM      8  C   UNL     1     -28.361 -16.821 149.808  1.00  0.00    -0.020 A 
ATOM      9  C   UNL     1     -29.726 -14.997 148.671  1.00  0.00    -0.011 A 
ATOM     10  C   UNL     1     -28.424 -13.915 146.880  1.00  0.00    -0.007 C 
ATOM     11  C   UNL     1     -29.432 -15.901 149.702  1.00  0.00     0.010 A 
ATOM     12  C   UNL     1     -30.224 -16.003 150.831  1.00  0.00     0.046 A 
ATOM     13  C   UNL     1     -28.509 -17.474 151.010  1.00  0.00     0.087 A 
ATOM     14  C   UNL     1     -30.856 -14.189 148.820  1.00  0.00     0.009 A 
ATOM     15  C   UNL     1     -31.361 -15.208 150.998  1.00  0.00     0.027 A 
ATOM     16  C   UNL     1     -31.659 -14.300 149.965  1.00  0.00     0.003 A 
ATOM     17  H   UNL     1     -29.991 -17.263 152.522  1.00  0.00     0.166 HD
ENDROOT
BRANCH   7  18
ATOM     18  C   UNL     1     -26.467 -12.625 145.943  1.00  0.00     0.230 C 
ATOM     19  O   UNL     1     -25.710 -12.419 146.896  1.00  0.00    -0.274 OA
ATOM     20  N   UNL     1     -26.556 -11.710 144.877  1.00  0.00    -0.343 N 
BRANCH  20  21
ATOM     21  C   UNL     1     -27.653 -11.741 143.895  1.00  0.00     0.116 C 
ATOM     22  C   UNL     1     -28.809 -10.793 144.178  1.00  0.00     0.027 C 
ENDBRANCH  20  21
BRANCH  20  23
ATOM     23  C   UNL     1     -25.822 -10.450 145.053  1.00  0.00     0.116 C 
ATOM     24  C   UNL     1     -24.496 -10.437 144.306  1.00  0.00     0.027 C 
ENDBRANCH  20  23
ENDBRANCH   7  18
BRANCH   1  25
ATOM     25  C   UNL     1     -26.285 -17.573 146.049  1.00  0.00     0.082 C 
ATOM     26  C   UNL     1     -24.797 -17.245 145.974  1.00  0.00     0.021 C 
ENDBRANCH   1  25
TORSDOF 4
ENDMDL
MODEL 13
REMARK VINA RESULT:    -8.312      3.328      4.503
REMARK INTER + INTRA:         -10.732
REMARK INTER:                 -10.595
REMARK INTRA:                  -0.137
REMARK UNBOUND:                -0.476
REMARK SMILES CCN(CC)C(=O)[C@@H]1C=C2c3cccc4[nH]cc(c34)C[C@H]2N(CC)C1
REMARK SMILES IDX 22 1 16 2 21 3 10 4 20 5 25 6 8 7 18 8 11 9 9 10 19 11 15 12
REMARK SMILES IDX 17 13 12 14 14 15 13 16 6 18 7 19 3 20 2 21 1 22 4 23 5 24
REMARK SMILES IDX 23 25 24 26
REMARK H PARENT 16 17
ROOT
ATOM      1  N   UNL     1     -25.683 -12.114 145.013  1.00  0.00    -0.295 NA
ATOM      2  N   UNL     1     -29.079  -9.476 140.760  1.00  0.00    -0.361 N 
ATOM      3  C   UNL     1     -26.626 -11.270 144.219  1.00  0.00     0.091 C 
ATOM      4  C   UNL     1     -28.018 -11.124 144.903  1.00  0.00    -0.026 C 
ATOM      5  C   UNL     1     -26.770 -11.639 142.690  1.00  0.00     0.061 C 
ATOM      6  C   UNL     1     -26.365 -13.308 145.537  1.00  0.00     0.102 C 
ATOM      7  C   UNL     1     -27.460 -12.906 146.549  1.00  0.00     0.116 C 
ATOM      8  C   UNL     1     -27.776 -10.739 142.045  1.00  0.00    -0.020 A 
ATOM      9  C   UNL     1     -28.966 -10.210 144.233  1.00  0.00    -0.011 A 
ATOM     10  C   UNL     1     -28.383 -11.858 145.969  1.00  0.00    -0.007 C 
ATOM     11  C   UNL     1     -28.758 -10.113 142.849  1.00  0.00     0.010 A 
ATOM     12  C   UNL     1     -29.562  -9.326 142.044  1.00  0.00     0.046 A 
ATOM     13  C   UNL     1     -27.995 -10.330 140.750  1.00  0.00     0.087 A 
ATOM     14  C   UNL     1     -30.024  -9.481 144.782  1.00  0.00     0.009 A 
ATOM     15  C   UNL     1     -30.622  -8.586 142.573  1.00  0.00     0.027 A 
ATOM     16  C   UNL     1     -30.833  -8.681 143.961  1.00  0.00     0.003 A 
ATOM     17  H   UNL     1     -29.469  -9.024 139.945  1.00  0.00     0.166 HD
ENDROOT
BRANCH   7  18
ATOM     18  C   UNL     1     -28.231 -14.177 146.955  1.00  0.00     0.230 C 
ATOM     19  O   UNL     1     -27.997 -15.258 146.405  1.00  0.00    -0.274 OA
ATOM     20  N   UNL     1     -29.172 -14.082 147.997  1.00  0.00    -0.343 N 
BRANCH  20  21
ATOM     21  C   UNL     1     -29.716 -12.794 148.458  1.00  0.00     0.116 C 
ATOM     22  C   UNL     1     -31.231 -12.738 148.596  1.00  0.00     0.027 C 
ENDBRANCH  20  21
BRANCH  20  23
ATOM     23  C   UNL     1     -29.950 -15.298 148.267  1.00  0.00     0.116 C 
ATOM     24  C   UNL     1     -29.476 -16.029 149.515  1.00  0.00     0.027 C 
ENDBRANCH  20  23
ENDBRANCH   7  18
BRANCH   1  25
ATOM     25  C   UNL     1     -24.441 -12.416 144.297  1.00  0.00     0.082 C 
ATOM     26  C   UNL     1     -23.203 -11.925 145.042  1.00  0.00     0.021 C 
ENDBRANCH   1  25
TORSDOF 4
ENDMDL
MODEL 14
REMARK VINA RESULT:    -8.206      3.734      7.592
REMARK INTER + INTRA:         -10.601
REMARK INTER:                 -10.483
REMARK INTRA:                  -0.118
REMARK UNBOUND:                -0.476
REMARK SMILES CCN(CC)C(=O)[C@@H]1C=C2c3cccc4[nH]cc(c34)C[C@H]2N(CC)C1
REMARK SMILES IDX 22 1 16 2 21 3 10 4 20 5 25 6 8 7 18 8 11 9 9 10 19 11 15 12
REMARK SMILES IDX 17 13 12 14 14 15 13 16 6 18 7 19 3 20 2 21 1 22 4 23 5 24
REMARK SMILES IDX 23 25 24 26
REMARK H PARENT 16 17
ROOT
ATOM      1  N   UNL     1     -27.840 -15.414 146.237  1.00  0.00    -0.295 NA
ATOM      2  N   UNL     1     -24.425 -17.554 150.747  1.00  0.00    -0.361 N 
ATOM      3  C   UNL     1     -27.269 -16.132 147.417  1.00  0.00     0.091 C 
ATOM      4  C   UNL     1     -28.242 -16.154 148.632  1.00  0.00    -0.026 C 
ATOM      5  C   UNL     1     -25.811 -15.703 147.852  1.00  0.00     0.061 C 
ATOM      6  C   UNL     1     -28.511 -14.173 146.655  1.00  0.00     0.102 C 
ATOM      7  C   UNL     1     -29.737 -14.491 147.538  1.00  0.00     0.116 C 
ATOM      8  C   UNL     1     -25.398 -16.474 149.065  1.00  0.00    -0.020 A 
ATOM      9  C   UNL     1     -27.792 -16.944 149.798  1.00  0.00    -0.011 A 
ATOM     10  C   UNL     1     -29.368 -15.419 148.673  1.00  0.00    -0.007 C 
ATOM     11  C   UNL     1     -26.395 -17.019 149.909  1.00  0.00     0.010 A 
ATOM     12  C   UNL     1     -25.782 -17.693 150.950  1.00  0.00     0.046 A 
ATOM     13  C   UNL     1     -24.181 -16.817 149.606  1.00  0.00     0.087 A 
ATOM     14  C   UNL     1     -28.556 -17.575 150.782  1.00  0.00     0.009 A 
ATOM     15  C   UNL     1     -26.528 -18.335 151.942  1.00  0.00     0.027 A 
ATOM     16  C   UNL     1     -27.928 -18.262 151.832  1.00  0.00     0.003 A 
ATOM     17  H   UNL     1     -23.713 -17.938 151.353  1.00  0.00     0.166 HD
ENDROOT
BRANCH   7  18
ATOM     18  C   UNL     1     -30.313 -13.160 148.060  1.00  0.00     0.230 C 
ATOM     19  O   UNL     1     -29.787 -12.085 147.756  1.00  0.00    -0.274 OA
ATOM     20  N   UNL     1     -31.476 -13.201 148.851  1.00  0.00    -0.343 N 
BRANCH  20  21
ATOM     21  C   UNL     1     -31.950 -14.434 149.500  1.00  0.00     0.116 C 
ATOM     22  C   UNL     1     -32.001 -14.393 151.020  1.00  0.00     0.027 C 
ENDBRANCH  20  21
BRANCH  20  23
ATOM     23  C   UNL     1     -31.916 -11.914 149.406  1.00  0.00     0.116 C 
ATOM     24  C   UNL     1     -33.292 -11.501 148.903  1.00  0.00     0.027 C 
ENDBRANCH  20  23
ENDBRANCH   7  18
BRANCH   1  25
ATOM     25  C   UNL     1     -26.870 -15.221 145.157  1.00  0.00     0.082 C 
ATOM     26  C   UNL     1     -26.725 -13.755 144.757  1.00  0.00     0.021 C 
ENDBRANCH   1  25
TORSDOF 4
ENDMDL
MODEL 15
REMARK VINA RESULT:    -8.204      2.628      7.017
REMARK INTER + INTRA:         -10.598
REMARK INTER:                 -11.519
REMARK INTRA:                   0.921
REMARK UNBOUND:                -0.476
REMARK SMILES CCN(CC)C(=O)[C@@H]1C=C2c3cccc4[nH]cc(c34)C[C@H]2N(CC)C1
REMARK SMILES IDX 22 1 16 2 21 3 10 4 20 5 25 6 8 7 18 8 11 9 9 10 19 11 15 12
REMARK SMILES IDX 17 13 12 14 14 15 13 16 6 18 7 19 3 20 2 21 1 22 4 23 5 24
REMARK SMILES IDX 23 25 24 26
REMARK H PARENT 16 17
ROOT
ATOM      1  N   UNL     1     -28.566 -12.113 146.733  1.00  0.00    -0.295 NA
ATOM      2  N   UNL     1     -26.545 -17.795 146.272  1.00  0.00    -0.361 N 
ATOM      3  C   UNL     1     -27.766 -13.367 146.593  1.00  0.00     0.091 C 
ATOM      4  C   UNL     1     -26.748 -13.298 145.416  1.00  0.00    -0.026 C 
ATOM      5  C   UNL     1     -28.587 -14.717 146.566  1.00  0.00     0.061 C 
ATOM      6  C   UNL     1     -29.007 -11.624 145.417  1.00  0.00     0.102 C 
ATOM      7  C   UNL     1     -27.792 -11.207 144.560  1.00  0.00     0.116 C 
ATOM      8  C   UNL     1     -27.655 -15.872 146.377  1.00  0.00    -0.020 A 
ATOM      9  C   UNL     1     -25.841 -14.457 145.286  1.00  0.00    -0.011 A 
ATOM     10  C   UNL     1     -26.756 -12.306 144.507  1.00  0.00    -0.007 C 
ATOM     11  C   UNL     1     -26.394 -15.650 145.775  1.00  0.00     0.010 A 
ATOM     12  C   UNL     1     -25.708 -16.850 145.718  1.00  0.00     0.046 A 
ATOM     13  C   UNL     1     -27.729 -17.212 146.677  1.00  0.00     0.087 A 
ATOM     14  C   UNL     1     -24.561 -14.516 144.729  1.00  0.00     0.009 A 
ATOM     15  C   UNL     1     -24.425 -16.930 145.169  1.00  0.00     0.027 A 
ATOM     16  C   UNL     1     -23.868 -15.735 144.678  1.00  0.00     0.003 A 
ATOM     17  H   UNL     1     -26.319 -18.775 146.365  1.00  0.00     0.166 HD
ENDROOT
BRANCH   7  18
ATOM     18  C   UNL     1     -28.301 -10.840 143.152  1.00  0.00     0.230 C 
ATOM     19  O   UNL     1     -29.231 -10.041 143.007  1.00  0.00    -0.274 OA
ATOM     20  N   UNL     1     -27.648 -11.403 142.040  1.00  0.00    -0.343 N 
BRANCH  20  21
ATOM     21  C   UNL     1     -26.770 -12.580 142.148  1.00  0.00     0.116 C 
ATOM     22  C   UNL     1     -26.769 -13.507 140.941  1.00  0.00     0.027 C 
ENDBRANCH  20  21
BRANCH  20  23
ATOM     23  C   UNL     1     -28.242 -11.102 140.731  1.00  0.00     0.116 C 
ATOM     24  C   UNL     1     -27.490 -10.008 139.986  1.00  0.00     0.027 C 
ENDBRANCH  20  23
ENDBRANCH   7  18
BRANCH   1  25
ATOM     25  C   UNL     1     -29.653 -12.232 147.708  1.00  0.00     0.082 C 
ATOM     26  C   UNL     1     -30.925 -11.520 147.255  1.00  0.00     0.021 C 
ENDBRANCH   1  25
TORSDOF 4
ENDMDL
MODEL 16
REMARK VINA RESULT:    -8.203      2.802      6.813
REMARK INTER + INTRA:         -10.597
REMARK INTER:                 -10.259
REMARK INTRA:                  -0.338
REMARK UNBOUND:                -0.476
REMARK SMILES CCN(CC)C(=O)[C@@H]1C=C2c3cccc4[nH]cc(c34)C[C@H]2N(CC)C1
REMARK SMILES IDX 22 1 16 2 21 3 10 4 20 5 25 6 8 7 18 8 11 9 9 10 19 11 15 12
REMARK SMILES IDX 17 13 12 14 14 15 13 16 6 18 7 19 3 20 2 21 1 22 4 23 5 24
REMARK SMILES IDX 23 25 24 26
REMARK H PARENT 16 17
ROOT
ATOM      1  N   UNL     1     -29.615 -11.753 145.861  1.00  0.00    -0.295 NA
ATOM      2  N   UNL     1     -23.800 -13.345 145.372  1.00  0.00    -0.361 N 
ATOM      3  C   UNL     1     -28.307 -12.433 145.617  1.00  0.00     0.091 C 
ATOM      4  C   UNL     1     -28.281 -13.892 146.160  1.00  0.00    -0.026 C 
ATOM      5  C   UNL     1     -27.016 -11.633 146.052  1.00  0.00     0.061 C 
ATOM      6  C   UNL     1     -30.104 -12.032 147.221  1.00  0.00     0.102 C 
ATOM      7  C   UNL     1     -30.419 -13.534 147.385  1.00  0.00     0.116 C 
ATOM      8  C   UNL     1     -25.796 -12.457 145.786  1.00  0.00    -0.020 A 
ATOM      9  C   UNL     1     -27.060 -14.667 145.855  1.00  0.00    -0.011 A 
ATOM     10  C   UNL     1     -29.251 -14.390 146.949  1.00  0.00    -0.007 C 
ATOM     11  C   UNL     1     -25.919 -13.865 145.707  1.00  0.00     0.010 A 
ATOM     12  C   UNL     1     -24.674 -14.409 145.445  1.00  0.00     0.046 A 
ATOM     13  C   UNL     1     -24.471 -12.156 145.576  1.00  0.00     0.087 A 
ATOM     14  C   UNL     1     -26.902 -16.050 145.732  1.00  0.00     0.009 A 
ATOM     15  C   UNL     1     -24.495 -15.789 145.312  1.00  0.00     0.027 A 
ATOM     16  C   UNL     1     -25.639 -16.595 145.460  1.00  0.00     0.003 A 
ATOM     17  H   UNL     1     -22.809 -13.429 145.195  1.00  0.00     0.166 HD
ENDROOT
BRANCH   7  18
ATOM     18  C   UNL     1     -30.788 -13.790 148.860  1.00  0.00     0.230 C 
ATOM     19  O   UNL     1     -30.058 -14.475 149.582  1.00  0.00    -0.274 OA
ATOM     20  N   UNL     1     -31.952 -13.185 149.370  1.00  0.00    -0.343 N 
BRANCH  20  21
ATOM     21  C   UNL     1     -33.008 -12.640 148.500  1.00  0.00     0.116 C 
ATOM     22  C   UNL     1     -33.681 -11.372 149.007  1.00  0.00     0.027 C 
ENDBRANCH  20  21
BRANCH  20  23
ATOM     23  C   UNL     1     -32.310 -13.550 150.747  1.00  0.00     0.116 C 
ATOM     24  C   UNL     1     -33.340 -14.669 150.806  1.00  0.00     0.027 C 
ENDBRANCH  20  23
ENDBRANCH   7  18
BRANCH   1  25
ATOM     25  C   UNL     1     -29.591 -10.326 145.528  1.00  0.00     0.082 C 
ATOM     26  C   UNL     1     -29.428 -10.079 144.031  1.00  0.00     0.021 C 
ENDBRANCH   1  25
TORSDOF 4
ENDMDL
MODEL 17
REMARK VINA RESULT:    -8.194      3.388      5.997
REMARK INTER + INTRA:         -10.586
REMARK INTER:                 -10.126
REMARK INTRA:                  -0.461
REMARK UNBOUND:                -0.476
REMARK SMILES CCN(CC)C(=O)[C@@H]1C=C2c3cccc4[nH]cc(c34)C[C@H]2N(CC)C1
REMARK SMILES IDX 22 1 16 2 21 3 10 4 20 5 25 6 8 7 18 8 11 9 9 10 19 11 15 12
REMARK SMILES IDX 17 13 12 14 14 15 13 16 6 18 7 19 3 20 2 21 1 22 4 23 5 24
REMARK SMILES IDX 23 25 24 26
REMARK H PARENT 16 17
ROOT
ATOM      1  N   UNL     1     -27.019 -11.609 146.237  1.00  0.00    -0.295 NA
ATOM      2  N   UNL     1     -28.778  -9.809 140.737  1.00  0.00    -0.361 N 
ATOM      3  C   UNL     1     -27.606 -10.917 145.050  1.00  0.00     0.091 C 
ATOM      4  C   UNL     1     -29.112 -10.571 145.243  1.00  0.00    -0.026 C 
ATOM      5  C   UNL     1     -27.346 -11.600 143.648  1.00  0.00     0.061 C 
ATOM      6  C   UNL     1     -27.940 -12.634 146.753  1.00  0.00     0.102 C 
ATOM      7  C   UNL     1     -29.230 -11.980 147.293  1.00  0.00     0.116 C 
ATOM      8  C   UNL     1     -28.029 -10.819 142.571  1.00  0.00    -0.020 A 
ATOM      9  C   UNL     1     -29.732  -9.784 144.157  1.00  0.00    -0.011 A 
ATOM     10  C   UNL     1     -29.838 -11.044 146.272  1.00  0.00    -0.007 C 
ATOM     11  C   UNL     1     -29.130  -9.996 142.907  1.00  0.00     0.010 A 
ATOM     12  C   UNL     1     -29.587  -9.368 141.763  1.00  0.00     0.046 A 
ATOM     13  C   UNL     1     -27.828 -10.688 141.217  1.00  0.00     0.087 A 
ATOM     14  C   UNL     1     -30.823  -8.913 144.213  1.00  0.00     0.009 A 
ATOM     15  C   UNL     1     -30.673  -8.489 141.797  1.00  0.00     0.027 A 
ATOM     16  C   UNL     1     -31.278  -8.275 143.049  1.00  0.00     0.003 A 
ATOM     17  H   UNL     1     -28.871  -9.526 139.771  1.00  0.00     0.166 HD
ENDROOT
BRANCH   7  18
ATOM     18  C   UNL     1     -30.210 -13.102 147.687  1.00  0.00     0.230 C 
ATOM     19  O   UNL     1     -30.108 -14.229 147.193  1.00  0.00    -0.274 OA
ATOM     20  N   UNL     1     -31.193 -12.820 148.654  1.00  0.00    -0.343 N 
BRANCH  20  21
ATOM     21  C   UNL     1     -31.564 -11.446 149.030  1.00  0.00     0.116 C 
ATOM     22  C   UNL     1     -33.058 -11.186 149.159  1.00  0.00     0.027 C 
ENDBRANCH  20  21
BRANCH  20  23
ATOM     23  C   UNL     1     -32.163 -13.893 148.911  1.00  0.00     0.116 C 
ATOM     24  C   UNL     1     -32.032 -14.476 150.311  1.00  0.00     0.027 C 
ENDBRANCH  20  23
ENDBRANCH   7  18
BRANCH   1  25
ATOM     25  C   UNL     1     -25.662 -12.108 145.998  1.00  0.00     0.082 C 
ATOM     26  C   UNL     1     -25.443 -13.504 146.573  1.00  0.00     0.021 C 
ENDBRANCH   1  25
TORSDOF 4
ENDMDL
MODEL 18
REMARK VINA RESULT:    -8.059      2.489      7.057
REMARK INTER + INTRA:         -10.419
REMARK INTER:                 -10.498
REMARK INTRA:                   0.079
REMARK UNBOUND:                -0.476
REMARK SMILES CCN(CC)C(=O)[C@@H]1C=C2c3cccc4[nH]cc(c34)C[C@H]2N(CC)C1
REMARK SMILES IDX 22 1 16 2 21 3 10 4 20 5 25 6 8 7 18 8 11 9 9 10 19 11 15 12
REMARK SMILES IDX 17 13 12 14 14 15 13 16 6 18 7 19 3 20 2 21 1 22 4 23 5 24
REMARK SMILES IDX 23 25 24 26
REMARK H PARENT 16 17
ROOT
ATOM      1  N   UNL     1     -28.479 -11.643 146.233  1.00  0.00    -0.295 NA
ATOM      2  N   UNL     1     -27.822 -17.156 148.632  1.00  0.00    -0.361 N 
ATOM      3  C   UNL     1     -27.992 -12.915 146.846  1.00  0.00     0.091 C 
ATOM      4  C   UNL     1     -26.720 -13.472 146.139  1.00  0.00    -0.026 C 
ATOM      5  C   UNL     1     -29.076 -14.045 147.056  1.00  0.00     0.061 C 
ATOM      6  C   UNL     1     -28.438 -11.722 144.764  1.00  0.00     0.102 C 
ATOM      7  C   UNL     1     -26.982 -11.850 144.268  1.00  0.00     0.116 C 
ATOM      8  C   UNL     1     -28.431 -15.265 147.634  1.00  0.00    -0.020 A 
ATOM      9  C   UNL     1     -26.114 -14.667 146.761  1.00  0.00    -0.011 A 
ATOM     10  C   UNL     1     -26.259 -12.973 144.978  1.00  0.00    -0.007 C 
ATOM     11  C   UNL     1     -27.042 -15.465 147.448  1.00  0.00     0.010 A 
ATOM     12  C   UNL     1     -26.670 -16.640 148.075  1.00  0.00     0.046 A 
ATOM     13  C   UNL     1     -28.895 -16.329 148.371  1.00  0.00     0.087 A 
ATOM     14  C   UNL     1     -24.787 -15.102 146.725  1.00  0.00     0.009 A 
ATOM     15  C   UNL     1     -25.347 -17.090 148.055  1.00  0.00     0.027 A 
ATOM     16  C   UNL     1     -24.415 -16.293 147.367  1.00  0.00     0.003 A 
ATOM     17  H   UNL     1     -27.868 -18.020 149.154  1.00  0.00     0.166 HD
ENDROOT
BRANCH   7  18
ATOM     18  C   UNL     1     -27.011 -12.071 142.743  1.00  0.00     0.230 C 
ATOM     19  O   UNL     1     -26.364 -12.987 142.227  1.00  0.00    -0.274 OA
ATOM     20  N   UNL     1     -27.827 -11.230 141.963  1.00  0.00    -0.343 N 
BRANCH  20  21
ATOM     21  C   UNL     1     -28.353  -9.950 142.464  1.00  0.00     0.116 C 
ATOM     22  C   UNL     1     -29.834  -9.708 142.210  1.00  0.00     0.027 C 
ENDBRANCH  20  21
BRANCH  20  23
ATOM     23  C   UNL     1     -27.732 -11.418 140.510  1.00  0.00     0.116 C 
ATOM     24  C   UNL     1     -27.398 -10.127 139.775  1.00  0.00     0.027 C 
ENDBRANCH  20  23
ENDBRANCH   7  18
BRANCH   1  25
ATOM     25  C   UNL     1     -29.774 -11.210 146.761  1.00  0.00     0.082 C 
ATOM     26  C   UNL     1     -30.483 -10.225 145.836  1.00  0.00     0.021 C 
ENDBRANCH   1  25
TORSDOF 4
ENDMDL
MODEL 19
REMARK VINA RESULT:    -7.942      2.157      4.408
REMARK INTER + INTRA:         -10.275
REMARK INTER:                 -10.373
REMARK INTRA:                   0.098
REMARK UNBOUND:                -0.476
REMARK SMILES CCN(CC)C(=O)[C@@H]1C=C2c3cccc4[nH]cc(c34)C[C@H]2N(CC)C1
REMARK SMILES IDX 22 1 16 2 21 3 10 4 20 5 25 6 8 7 18 8 11 9 9 10 19 11 15 12
REMARK SMILES IDX 17 13 12 14 14 15 13 16 6 18 7 19 3 20 2 21 1 22 4 23 5 24
REMARK SMILES IDX 23 25 24 26
REMARK H PARENT 16 17
ROOT
ATOM      1  N   UNL     1     -27.901 -15.419 146.546  1.00  0.00    -0.295 NA
ATOM      2  N   UNL     1     -25.540 -10.092 144.924  1.00  0.00    -0.361 N 
ATOM      3  C   UNL     1     -27.102 -14.295 145.970  1.00  0.00     0.091 C 
ATOM      4  C   UNL     1     -25.568 -14.518 146.114  1.00  0.00    -0.026 C 
ATOM      5  C   UNL     1     -27.520 -12.841 146.426  1.00  0.00     0.061 C 
ATOM      6  C   UNL     1     -27.346 -15.846 147.840  1.00  0.00     0.102 C 
ATOM      7  C   UNL     1     -25.933 -16.440 147.654  1.00  0.00     0.116 C 
ATOM      8  C   UNL     1     -26.605 -11.834 145.804  1.00  0.00    -0.020 A 
ATOM      9  C   UNL     1     -24.711 -13.502 145.467  1.00  0.00    -0.011 A 
ATOM     10  C   UNL     1     -25.045 -15.503 146.867  1.00  0.00    -0.007 C 
ATOM     11  C   UNL     1     -25.316 -12.239 145.384  1.00  0.00     0.010 A 
ATOM     12  C   UNL     1     -24.661 -11.152 144.834  1.00  0.00     0.046 A 
ATOM     13  C   UNL     1     -26.723 -10.496 145.510  1.00  0.00     0.087 A 
ATOM     14  C   UNL     1     -23.409 -13.632 144.975  1.00  0.00     0.009 A 
ATOM     15  C   UNL     1     -23.362 -11.261 144.331  1.00  0.00     0.027 A 
ATOM     16  C   UNL     1     -22.753 -12.527 144.413  1.00  0.00     0.003 A 
ATOM     17  H   UNL     1     -25.340  -9.154 144.606  1.00  0.00     0.166 HD
ENDROOT
BRANCH   7  18
ATOM     18  C   UNL     1     -25.348 -16.737 149.049  1.00  0.00     0.230 C 
ATOM     19  O   UNL     1     -25.970 -16.430 150.070  1.00  0.00    -0.274 OA
ATOM     20  N   UNL     1     -24.112 -17.405 149.125  1.00  0.00    -0.343 N 
BRANCH  20  21
ATOM     21  C   UNL     1     -23.193 -17.504 147.980  1.00  0.00     0.116 C 
ATOM     22  C   UNL     1     -23.422 -18.694 147.059  1.00  0.00     0.027 C 
ENDBRANCH  20  21
BRANCH  20  23
ATOM     23  C   UNL     1     -23.555 -17.565 150.475  1.00  0.00     0.116 C 
ATOM     24  C   UNL     1     -22.238 -16.825 150.654  1.00  0.00     0.027 C 
ENDBRANCH  20  23
ENDBRANCH   7  18
BRANCH   1  25
ATOM     25  C   UNL     1     -29.338 -15.139 146.588  1.00  0.00     0.082 C 
ATOM     26  C   UNL     1     -29.824 -14.791 147.992  1.00  0.00     0.021 C 
ENDBRANCH   1  25
TORSDOF 4
ENDMDL
MODEL 20
REMARK VINA RESULT:    -7.844      3.122      5.408
REMARK INTER + INTRA:         -10.154
REMARK INTER:                  -9.961
REMARK INTRA:                  -0.193
REMARK UNBOUND:                -0.476
REMARK SMILES CCN(CC)C(=O)[C@@H]1C=C2c3cccc4[nH]cc(c34)C[C@H]2N(CC)C1
REMARK SMILES IDX 22 1 16 2 21 3 10 4 20 5 25 6 8 7 18 8 11 9 9 10 19 11 15 12
REMARK SMILES IDX 17 13 12 14 14 15 13 16 6 18 7 19 3 20 2 21 1 22 4 23 5 24
REMARK SMILES IDX 23 25 24 26
REMARK H PARENT 16 17
ROOT
ATOM      1  N   UNL     1     -29.061 -14.324 146.899  1.00  0.00    -0.295 NA
ATOM      2  N   UNL     1     -24.323 -11.227 144.767  1.00  0.00    -0.361 N 
ATOM      3  C   UNL     1     -27.833 -13.841 146.196  1.00  0.00     0.091 C 
ATOM      4  C   UNL     1     -26.669 -14.874 146.249  1.00  0.00    -0.026 C 
ATOM      5  C   UNL     1     -27.337 -12.392 146.581  1.00  0.00     0.061 C 
ATOM      6  C   UNL     1     -28.713 -14.965 148.177  1.00  0.00     0.102 C 
ATOM      7  C   UNL     1     -27.885 -16.245 147.934  1.00  0.00     0.116 C 
ATOM      8  C   UNL     1     -26.082 -12.071 145.833  1.00  0.00    -0.020 A 
ATOM      9  C   UNL     1     -25.460 -14.515 145.478  1.00  0.00    -0.011 A 
ATOM     10  C   UNL     1     -26.707 -15.970 147.027  1.00  0.00    -0.007 C 
ATOM     11  C   UNL     1     -25.275 -13.130 145.353  1.00  0.00     0.010 A 
ATOM     12  C   UNL     1     -24.186 -12.597 144.687  1.00  0.00     0.046 A 
ATOM     13  C   UNL     1     -25.471 -10.897 145.458  1.00  0.00     0.087 A 
ATOM     14  C   UNL     1     -24.499 -15.352 144.907  1.00  0.00     0.009 A 
ATOM     15  C   UNL     1     -23.215 -13.417 144.105  1.00  0.00     0.027 A 
ATOM     16  C   UNL     1     -23.398 -14.806 144.229  1.00  0.00     0.003 A 
ATOM     17  H   UNL     1     -23.671 -10.563 144.374  1.00  0.00     0.166 HD
ENDROOT
BRANCH   7  18
ATOM     18  C   UNL     1     -27.432 -16.791 149.302  1.00  0.00     0.230 C 
ATOM     19  O   UNL     1     -26.234 -16.966 149.545  1.00  0.00    -0.274 OA
ATOM     20  N   UNL     1     -28.414 -17.042 150.278  1.00  0.00    -0.343 N 
BRANCH  20  21
ATOM     21  C   UNL     1     -29.844 -17.161 149.951  1.00  0.00     0.116 C 
ATOM     22  C   UNL     1     -30.768 -16.219 150.711  1.00  0.00     0.027 C 
ENDBRANCH  20  21
BRANCH  20  23
ATOM     23  C   UNL     1     -27.935 -17.661 151.521  1.00  0.00     0.116 C 
ATOM     24  C   UNL     1     -28.629 -18.982 151.821  1.00  0.00     0.027 C 
ENDBRANCH  20  23
ENDBRANCH   7  18
BRANCH   1  25
ATOM     25  C   UNL     1     -30.095 -13.294 147.021  1.00  0.00     0.082 C 
ATOM     26  C   UNL     1     -30.619 -13.159 148.448  1.00  0.00     0.021 C 
ENDBRANCH   1  25
TORSDOF 4
ENDMDL
