MODEL 1
REMARK VINA RESULT:    -7.508      0.000      0.000
REMARK INTER + INTRA:          -9.785
REMARK INTER:                  -9.264
REMARK INTRA:                  -0.521
REMARK UNBOUND:                -0.521
REMARK SMILES CCN(CC)C(=O)[C@@H]1C=C2c3cccc4[nH]cc(c34)C[C@H]2N(CC)C1
REMARK SMILES IDX 22 1 16 2 21 3 10 4 20 5 25 6 8 7 18 8 11 9 9 10 19 11 15 12
REMARK SMILES IDX 17 13 12 14 14 15 13 16 6 18 7 19 3 20 2 21 1 22 4 23 5 24
REMARK SMILES IDX 23 25 24 26
REMARK H PARENT 16 17
ROOT
ATOM      1  N   UNL     1      97.280 124.570 117.153  1.00  0.00    -0.295 NA
ATOM      2  N   UNL     1     101.975 122.803 113.774  1.00  0.00    -0.361 N 
ATOM      3  C   UNL     1      98.208 123.943 116.164  1.00  0.00     0.091 C 
ATOM      4  C   UNL     1      98.034 122.398 116.077  1.00  0.00    -0.026 C 
ATOM      5  C   UNL     1      99.731 124.346 116.287  1.00  0.00     0.061 C 
ATOM      6  C   UNL     1      97.218 123.774 118.389  1.00  0.00     0.102 C 
ATOM      7  C   UNL     1      96.597 122.389 118.110  1.00  0.00     0.116 C 
ATOM      8  C   UNL     1     100.534 123.607 115.264  1.00  0.00    -0.020 A 
ATOM      9  C   UNL     1      98.838 121.721 115.038  1.00  0.00    -0.011 A 
ATOM     10  C   UNL     1      97.288 121.702 116.954  1.00  0.00    -0.007 C 
ATOM     11  C   UNL     1     100.032 122.394 114.737  1.00  0.00     0.010 A 
ATOM     12  C   UNL     1     100.931 121.902 113.808  1.00  0.00     0.046 A 
ATOM     13  C   UNL     1     101.744 123.842 114.653  1.00  0.00     0.087 A 
ATOM     14  C   UNL     1      98.581 120.523 114.368  1.00  0.00     0.009 A 
ATOM     15  C   UNL     1     100.691 120.708 113.122  1.00  0.00     0.027 A 
ATOM     16  C   UNL     1      99.495 120.032 113.423  1.00  0.00     0.003 A 
ATOM     17  H   UNL     1     102.793 122.710 113.189  1.00  0.00     0.166 HD
ENDROOT
BRANCH   7  18
ATOM     18  C   UNL     1      96.687 121.552 119.401  1.00  0.00     0.230 C 
ATOM     19  O   UNL     1      97.711 120.917 119.670  1.00  0.00    -0.274 OA
ATOM     20  N   UNL     1      95.591 121.569 120.284  1.00  0.00    -0.343 N 
BRANCH  20  21
ATOM     21  C   UNL     1      94.253 122.031 119.879  1.00  0.00     0.116 C 
ATOM     22  C   UNL     1      93.526 122.899 120.896  1.00  0.00     0.027 C 
ENDBRANCH  20  21
BRANCH  20  23
ATOM     23  C   UNL     1      95.690 120.672 121.443  1.00  0.00     0.116 C 
ATOM     24  C   UNL     1      94.504 119.725 121.552  1.00  0.00     0.027 C 
ENDBRANCH  20  23
ENDBRANCH   7  18
BRANCH   1  25
ATOM     25  C   UNL     1      97.561 125.990 117.383  1.00  0.00     0.082 C 
ATOM     26  C   UNL     1      97.890 126.290 118.843  1.00  0.00     0.021 C 
ENDBRANCH   1  25
TORSDOF 4
ENDMDL
MODEL 2
REMARK VINA RESULT:    -7.270      1.417      1.818
REMARK INTER + INTRA:          -9.492
REMARK INTER:                  -8.982
REMARK INTRA:                  -0.509
REMARK UNBOUND:                -0.521
REMARK SMILES CCN(CC)C(=O)[C@@H]1C=C2c3cccc4[nH]cc(c34)C[C@H]2N(CC)C1
REMARK SMILES IDX 22 1 16 2 21 3 10 4 20 5 25 6 8 7 18 8 11 9 9 10 19 11 15 12
REMARK SMILES IDX 17 13 12 14 14 15 13 16 6 18 7 19 3 20 2 21 1 22 4 23 5 24
REMARK SMILES IDX 23 25 24 26
REMARK H PARENT 16 17
ROOT
ATOM      1  N   UNL     1      97.566 125.946 117.712  1.00  0.00    -0.295 NA
ATOM      2  N   UNL     1     102.084 124.506 113.957  1.00  0.00    -0.361 N 
ATOM      3  C   UNL     1      98.440 125.423 116.619  1.00  0.00     0.091 C 
ATOM      4  C   UNL     1      98.230 123.902 116.362  1.00  0.00    -0.026 C 
ATOM      5  C   UNL     1      99.975 125.783 116.724  1.00  0.00     0.061 C 
ATOM      6  C   UNL     1      97.536 125.013 118.850  1.00  0.00     0.102 C 
ATOM      7  C   UNL     1      96.875 123.680 118.438  1.00  0.00     0.116 C 
ATOM      8  C   UNL     1     100.721 125.155 115.589  1.00  0.00    -0.020 A 
ATOM      9  C   UNL     1      98.977 123.337 115.219  1.00  0.00    -0.011 A 
ATOM     10  C   UNL     1      97.505 123.120 117.183  1.00  0.00    -0.007 C 
ATOM     11  C   UNL     1     100.172 124.020 114.947  1.00  0.00     0.010 A 
ATOM     12  C   UNL     1     101.023 123.625 113.930  1.00  0.00     0.046 A 
ATOM     13  C   UNL     1     101.910 125.439 114.959  1.00  0.00     0.087 A 
ATOM     14  C   UNL     1      98.668 122.229 114.425  1.00  0.00     0.009 A 
ATOM     15  C   UNL     1     100.730 122.523 113.122  1.00  0.00     0.027 A 
ATOM     16  C   UNL     1      99.533 121.836 113.392  1.00  0.00     0.003 A 
ATOM     17  H   UNL     1     102.876 124.468 113.330  1.00  0.00     0.166 HD
ENDROOT
BRANCH   7  18
ATOM     18  C   UNL     1      96.999 122.697 119.620  1.00  0.00     0.230 C 
ATOM     19  O   UNL     1      97.897 122.828 120.456  1.00  0.00    -0.274 OA
ATOM     20  N   UNL     1      96.035 121.679 119.743  1.00  0.00    -0.343 N 
BRANCH  20  21
ATOM     21  C   UNL     1      95.156 121.281 118.632  1.00  0.00     0.116 C 
ATOM     22  C   UNL     1      95.631 120.086 117.818  1.00  0.00     0.027 C 
ENDBRANCH  20  21
BRANCH  20  23
ATOM     23  C   UNL     1      96.265 120.711 120.824  1.00  0.00     0.116 C 
ATOM     24  C   UNL     1      95.147 120.714 121.857  1.00  0.00     0.027 C 
ENDBRANCH  20  23
ENDBRANCH   7  18
BRANCH   1  25
ATOM     25  C   UNL     1      97.886 127.324 118.093  1.00  0.00     0.082 C 
ATOM     26  C   UNL     1      96.655 128.225 118.115  1.00  0.00     0.021 C 
ENDBRANCH   1  25
TORSDOF 4
ENDMDL
MODEL 3
REMARK VINA RESULT:    -6.573      2.064      2.867
REMARK INTER + INTRA:          -8.631
REMARK INTER:                  -7.932
REMARK INTRA:                  -0.699
REMARK UNBOUND:                -0.521
REMARK SMILES CCN(CC)C(=O)[C@@H]1C=C2c3cccc4[nH]cc(c34)C[C@H]2N(CC)C1
REMARK SMILES IDX 22 1 16 2 21 3 10 4 20 5 25 6 8 7 18 8 11 9 9 10 19 11 15 12
REMARK SMILES IDX 17 13 12 14 14 15 13 16 6 18 7 19 3 20 2 21 1 22 4 23 5 24
REMARK SMILES IDX 23 25 24 26
REMARK H PARENT 16 17
ROOT
ATOM      1  N   UNL     1      97.215 126.490 118.564  1.00  0.00    -0.295 NA
ATOM      2  N   UNL     1     102.218 126.517 115.165  1.00  0.00    -0.361 N 
ATOM      3  C   UNL     1      98.258 126.326 117.506  1.00  0.00     0.091 C 
ATOM      4  C   UNL     1      98.346 124.865 116.975  1.00  0.00    -0.026 C 
ATOM      5  C   UNL     1      99.689 126.904 117.846  1.00  0.00     0.061 C 
ATOM      6  C   UNL     1      97.257 125.370 119.518  1.00  0.00     0.102 C 
ATOM      7  C   UNL     1      96.883 124.047 118.816  1.00  0.00     0.116 C 
ATOM      8  C   UNL     1     100.628 126.625 116.716  1.00  0.00    -0.020 A 
ATOM      9  C   UNL     1      99.276 124.649 115.847  1.00  0.00    -0.011 A 
ATOM     10  C   UNL     1      97.706 123.838 117.565  1.00  0.00    -0.007 C 
ATOM     11  C   UNL     1     100.348 125.555 115.833  1.00  0.00     0.010 A 
ATOM     12  C   UNL     1     101.338 125.497 114.869  1.00  0.00     0.046 A 
ATOM     13  C   UNL     1     101.796 127.209 116.283  1.00  0.00     0.087 A 
ATOM     14  C   UNL     1      99.239 123.672 114.849  1.00  0.00     0.009 A 
ATOM     15  C   UNL     1     101.317 124.532 113.859  1.00  0.00     0.027 A 
ATOM     16  C   UNL     1     100.244 123.622 113.872  1.00  0.00     0.003 A 
ATOM     17  H   UNL     1     103.054 126.724 114.636  1.00  0.00     0.166 HD
ENDROOT
BRANCH   7  18
ATOM     18  C   UNL     1      97.080 122.896 119.822  1.00  0.00     0.230 C 
ATOM     19  O   UNL     1      97.992 122.937 120.654  1.00  0.00    -0.274 OA
ATOM     20  N   UNL     1      96.169 121.824 119.797  1.00  0.00    -0.343 N 
BRANCH  20  21
ATOM     21  C   UNL     1      95.282 121.565 118.650  1.00  0.00     0.116 C 
ATOM     22  C   UNL     1      95.827 120.600 117.608  1.00  0.00     0.027 C 
ENDBRANCH  20  21
BRANCH  20  23
ATOM     23  C   UNL     1      96.469 120.709 120.704  1.00  0.00     0.116 C 
ATOM     24  C   UNL     1      95.578 120.705 121.938  1.00  0.00     0.027 C 
ENDBRANCH  20  23
ENDBRANCH   7  18
BRANCH   1  25
ATOM     25  C   UNL     1      97.249 127.807 119.204  1.00  0.00     0.082 C 
ATOM     26  C   UNL     1      97.104 127.723 120.721  1.00  0.00     0.021 C 
ENDBRANCH   1  25
TORSDOF 4
ENDMDL
MODEL 4
REMARK VINA RESULT:    -6.497      2.054      6.944
REMARK INTER + INTRA:          -8.538
REMARK INTER:                  -7.933
REMARK INTRA:                  -0.605
REMARK UNBOUND:                -0.521
REMARK SMILES CCN(CC)C(=O)[C@@H]1C=C2c3cccc4[nH]cc(c34)C[C@H]2N(CC)C1
REMARK SMILES IDX 22 1 16 2 21 3 10 4 20 5 25 6 8 7 18 8 11 9 9 10 19 11 15 12
REMARK SMILES IDX 17 13 12 14 14 15 13 16 6 18 7 19 3 20 2 21 1 22 4 23 5 24
REMARK SMILES IDX 23 25 24 26
REMARK H PARENT 16 17
ROOT
ATOM      1  N   UNL     1      97.578 124.102 119.732  1.00  0.00    -0.295 NA
ATOM      2  N   UNL     1      92.696 120.779 121.037  1.00  0.00    -0.361 N 
ATOM      3  C   UNL     1      96.585 123.022 120.015  1.00  0.00     0.091 C 
ATOM      4  C   UNL     1      96.630 121.877 118.960  1.00  0.00    -0.026 C 
ATOM      5  C   UNL     1      95.102 123.495 120.288  1.00  0.00     0.061 C 
ATOM      6  C   UNL     1      97.597 124.433 118.298  1.00  0.00     0.102 C 
ATOM      7  C   UNL     1      98.097 123.229 117.471  1.00  0.00     0.116 C 
ATOM      8  C   UNL     1      94.224 122.305 120.509  1.00  0.00    -0.020 A 
ATOM      9  C   UNL     1      95.756 120.718 119.236  1.00  0.00    -0.011 A 
ATOM     10  C   UNL     1      97.332 121.972 117.816  1.00  0.00    -0.007 C 
ATOM     11  C   UNL     1      94.616 121.051 119.983  1.00  0.00     0.010 A 
ATOM     12  C   UNL     1      93.663 120.106 120.320  1.00  0.00     0.046 A 
ATOM     13  C   UNL     1      93.027 122.113 121.159  1.00  0.00     0.087 A 
ATOM     14  C   UNL     1      95.902 119.388 118.832  1.00  0.00     0.009 A 
ATOM     15  C   UNL     1      93.793 118.770 119.931  1.00  0.00     0.027 A 
ATOM     16  C   UNL     1      94.934 118.434 119.181  1.00  0.00     0.003 A 
ATOM     17  H   UNL     1      91.863 120.350 121.416  1.00  0.00     0.166 HD
ENDROOT
BRANCH   7  18
ATOM     18  C   UNL     1      97.962 123.583 115.977  1.00  0.00     0.230 C 
ATOM     19  O   UNL     1      97.067 124.340 115.588  1.00  0.00    -0.274 OA
ATOM     20  N   UNL     1      98.909 123.058 115.079  1.00  0.00    -0.343 N 
BRANCH  20  21
ATOM     21  C   UNL     1      99.780 121.922 115.421  1.00  0.00     0.116 C 
ATOM     22  C   UNL     1      99.460 120.616 114.707  1.00  0.00     0.027 C 
ENDBRANCH  20  21
BRANCH  20  23
ATOM     23  C   UNL     1      98.668 123.342 113.658  1.00  0.00     0.116 C 
ATOM     24  C   UNL     1      99.835 124.065 113.001  1.00  0.00     0.027 C 
ENDBRANCH  20  23
ENDBRANCH   7  18
BRANCH   1  25
ATOM     25  C   UNL     1      97.419 125.270 120.601  1.00  0.00     0.082 C 
ATOM     26  C   UNL     1      98.344 126.419 120.212  1.00  0.00     0.021 C 
ENDBRANCH   1  25
TORSDOF 4
ENDMDL
MODEL 5
REMARK VINA RESULT:    -6.273      2.348      6.107
REMARK INTER + INTRA:          -8.261
REMARK INTER:                  -7.714
REMARK INTRA:                  -0.547
REMARK UNBOUND:                -0.521
REMARK SMILES CCN(CC)C(=O)[C@@H]1C=C2c3cccc4[nH]cc(c34)C[C@H]2N(CC)C1
REMARK SMILES IDX 22 1 16 2 21 3 10 4 20 5 25 6 8 7 18 8 11 9 9 10 19 11 15 12
REMARK SMILES IDX 17 13 12 14 14 15 13 16 6 18 7 19 3 20 2 21 1 22 4 23 5 24
REMARK SMILES IDX 23 25 24 26
REMARK H PARENT 16 17
ROOT
ATOM      1  N   UNL     1      97.741 123.755 117.667  1.00  0.00    -0.295 NA
ATOM      2  N   UNL     1      97.408 129.675 118.861  1.00  0.00    -0.361 N 
ATOM      3  C   UNL     1      97.826 125.132 118.242  1.00  0.00     0.091 C 
ATOM      4  C   UNL     1      97.416 125.179 119.744  1.00  0.00    -0.026 C 
ATOM      5  C   UNL     1      97.116 126.276 117.415  1.00  0.00     0.061 C 
ATOM      6  C   UNL     1      96.509 123.080 118.107  1.00  0.00     0.102 C 
ATOM      7  C   UNL     1      96.532 122.854 119.634  1.00  0.00     0.116 C 
ATOM      8  C   UNL     1      97.250 127.579 118.137  1.00  0.00    -0.020 A 
ATOM      9  C   UNL     1      97.584 126.486 120.412  1.00  0.00    -0.011 A 
ATOM     10  C   UNL     1      96.845 124.136 120.373  1.00  0.00    -0.007 C 
ATOM     11  C   UNL     1      97.472 127.575 119.535  1.00  0.00     0.010 A 
ATOM     12  C   UNL     1      97.574 128.881 119.977  1.00  0.00     0.046 A 
ATOM     13  C   UNL     1      97.213 128.895 117.739  1.00  0.00     0.087 A 
ATOM     14  C   UNL     1      97.802 126.763 121.765  1.00  0.00     0.009 A 
ATOM     15  C   UNL     1      97.796 129.180 121.324  1.00  0.00     0.027 A 
ATOM     16  C   UNL     1      97.909 128.090 122.206  1.00  0.00     0.003 A 
ATOM     17  H   UNL     1      97.427 130.685 118.869  1.00  0.00     0.166 HD
ENDROOT
BRANCH   7  18
ATOM     18  C   UNL     1      95.167 122.276 120.056  1.00  0.00     0.230 C 
ATOM     19  O   UNL     1      94.286 123.011 120.513  1.00  0.00    -0.274 OA
ATOM     20  N   UNL     1      94.936 120.902 119.862  1.00  0.00    -0.343 N 
BRANCH  20  21
ATOM     21  C   UNL     1      96.027 119.940 119.632  1.00  0.00     0.116 C 
ATOM     22  C   UNL     1      95.673 118.750 118.751  1.00  0.00     0.027 C 
ENDBRANCH  20  21
BRANCH  20  23
ATOM     23  C   UNL     1      93.660 120.389 120.379  1.00  0.00     0.116 C 
ATOM     24  C   UNL     1      93.779 119.851 121.798  1.00  0.00     0.027 C 
ENDBRANCH  20  23
ENDBRANCH   7  18
BRANCH   1  25
ATOM     25  C   UNL     1      97.938 123.726 116.216  1.00  0.00     0.082 C 
ATOM     26  C   UNL     1      98.705 122.490 115.755  1.00  0.00     0.021 C 
ENDBRANCH   1  25
TORSDOF 4
ENDMDL
MODEL 6
REMARK VINA RESULT:    -6.198      1.874      6.918
REMARK INTER + INTRA:          -8.169
REMARK INTER:                  -8.053
REMARK INTRA:                  -0.116
REMARK UNBOUND:                -0.521
REMARK SMILES CCN(CC)C(=O)[C@@H]1C=C2c3cccc4[nH]cc(c34)C[C@H]2N(CC)C1
REMARK SMILES IDX 22 1 16 2 21 3 10 4 20 5 25 6 8 7 18 8 11 9 9 10 19 11 15 12
REMARK SMILES IDX 17 13 12 14 14 15 13 16 6 18 7 19 3 20 2 21 1 22 4 23 5 24
REMARK SMILES IDX 23 25 24 26
REMARK H PARENT 16 17
ROOT
ATOM      1  N   UNL     1      97.865 123.505 117.637  1.00  0.00    -0.295 NA
ATOM      2  N   UNL     1      92.762 121.264 119.986  1.00  0.00    -0.361 N 
ATOM      3  C   UNL     1      96.811 122.716 118.343  1.00  0.00     0.091 C 
ATOM      4  C   UNL     1      96.923 121.187 118.068  1.00  0.00    -0.026 C 
ATOM      5  C   UNL     1      95.326 123.226 118.167  1.00  0.00     0.061 C 
ATOM      6  C   UNL     1      98.041 123.025 116.257  1.00  0.00     0.102 C 
ATOM      7  C   UNL     1      98.580 121.579 116.251  1.00  0.00     0.116 C 
ATOM      8  C   UNL     1      94.388 122.313 118.892  1.00  0.00    -0.020 A 
ATOM      9  C   UNL     1      95.985 120.331 118.822  1.00  0.00    -0.011 A 
ATOM     10  C   UNL     1      97.740 120.678 117.128  1.00  0.00    -0.007 C 
ATOM     11  C   UNL     1      94.788 120.982 119.156  1.00  0.00     0.010 A 
ATOM     12  C   UNL     1      93.773 120.337 119.840  1.00  0.00     0.046 A 
ATOM     13  C   UNL     1      93.126 122.467 119.415  1.00  0.00     0.087 A 
ATOM     14  C   UNL     1      96.124 118.994 119.203  1.00  0.00     0.009 A 
ATOM     15  C   UNL     1      93.894 119.002 120.235  1.00  0.00     0.027 A 
ATOM     16  C   UNL     1      95.094 118.347 119.901  1.00  0.00     0.003 A 
ATOM     17  H   UNL     1      91.881 121.082 120.445  1.00  0.00     0.166 HD
ENDROOT
BRANCH   7  18
ATOM     18  C   UNL     1      98.610 121.082 114.792  1.00  0.00     0.230 C 
ATOM     19  O   UNL     1      98.025 120.043 114.469  1.00  0.00    -0.274 OA
ATOM     20  N   UNL     1      99.279 121.866 113.835  1.00  0.00    -0.343 N 
BRANCH  20  21
ATOM     21  C   UNL     1     100.244 122.914 114.203  1.00  0.00     0.116 C 
ATOM     22  C   UNL     1     100.279 124.123 113.280  1.00  0.00     0.027 C 
ENDBRANCH  20  21
BRANCH  20  23
ATOM     23  C   UNL     1      99.365 121.290 112.486  1.00  0.00     0.116 C 
ATOM     24  C   UNL     1     100.685 120.573 112.240  1.00  0.00     0.027 C 
ENDBRANCH  20  23
ENDBRANCH   7  18
BRANCH   1  25
ATOM     25  C   UNL     1      97.659 124.952 117.732  1.00  0.00     0.082 C 
ATOM     26  C   UNL     1      97.916 125.487 119.138  1.00  0.00     0.021 C 
ENDBRANCH   1  25
TORSDOF 4
ENDMDL
MODEL 7
REMARK VINA RESULT:    -5.828      1.432      1.721
REMARK INTER + INTRA:          -7.712
REMARK INTER:                  -7.260
REMARK INTRA:                  -0.452
REMARK UNBOUND:                -0.521
REMARK SMILES CCN(CC)C(=O)[C@@H]1C=C2c3cccc4[nH]cc(c34)C[C@H]2N(CC)C1
REMARK SMILES IDX 22 1 16 2 21 3 10 4 20 5 25 6 8 7 18 8 11 9 9 10 19 11 15 12
REMARK SMILES IDX 17 13 12 14 14 15 13 16 6 18 7 19 3 20 2 21 1 22 4 23 5 24
REMARK SMILES IDX 23 25 24 26
REMARK H PARENT 16 17
ROOT
ATOM      1  N   UNL     1      98.666 124.386 116.283  1.00  0.00    -0.295 NA
ATOM      2  N   UNL     1     102.422 121.975 112.201  1.00  0.00    -0.361 N 
ATOM      3  C   UNL     1      99.308 123.687 115.129  1.00  0.00     0.091 C 
ATOM      4  C   UNL     1      98.728 122.260 114.897  1.00  0.00    -0.026 C 
ATOM      5  C   UNL     1     100.888 123.676 115.114  1.00  0.00     0.061 C 
ATOM      6  C   UNL     1      98.504 123.472 117.424  1.00  0.00     0.102 C 
ATOM      7  C   UNL     1      97.520 122.336 117.073  1.00  0.00     0.116 C 
ATOM      8  C   UNL     1     101.377 122.905 113.929  1.00  0.00    -0.020 A 
ATOM      9  C   UNL     1      99.233 121.550 113.703  1.00  0.00    -0.011 A 
ATOM     10  C   UNL     1      97.904 121.660 115.776  1.00  0.00    -0.007 C 
ATOM     11  C   UNL     1     100.530 121.938 113.337  1.00  0.00     0.010 A 
ATOM     12  C   UNL     1     101.185 121.368 112.260  1.00  0.00     0.046 A 
ATOM     13  C   UNL     1     102.548 122.911 113.208  1.00  0.00     0.087 A 
ATOM     14  C   UNL     1      98.614 120.556 112.942  1.00  0.00     0.009 A 
ATOM     15  C   UNL     1     100.583 120.375 111.483  1.00  0.00     0.027 A 
ATOM     16  C   UNL     1      99.282 119.984 111.848  1.00  0.00     0.003 A 
ATOM     17  H   UNL     1     103.133 121.761 111.516  1.00  0.00     0.166 HD
ENDROOT
BRANCH   7  18
ATOM     18  C   UNL     1      97.499 121.337 118.247  1.00  0.00     0.230 C 
ATOM     19  O   UNL     1      98.247 120.355 118.251  1.00  0.00    -0.274 OA
ATOM     20  N   UNL     1      96.640 121.599 119.330  1.00  0.00    -0.343 N 
BRANCH  20  21
ATOM     21  C   UNL     1      95.520 122.550 119.240  1.00  0.00     0.116 C 
ATOM     22  C   UNL     1      94.419 122.171 118.260  1.00  0.00     0.027 C 
ENDBRANCH  20  21
BRANCH  20  23
ATOM     23  C   UNL     1      96.585 120.561 120.367  1.00  0.00     0.116 C 
ATOM     24  C   UNL     1      97.084 121.056 121.717  1.00  0.00     0.027 C 
ENDBRANCH  20  23
ENDBRANCH   7  18
BRANCH   1  25
ATOM     25  C   UNL     1      99.328 125.646 116.630  1.00  0.00     0.082 C 
ATOM     26  C   UNL     1      98.711 126.311 117.857  1.00  0.00     0.021 C 
ENDBRANCH   1  25
TORSDOF 4
ENDMDL
MODEL 8
REMARK VINA RESULT:    -5.782      2.378      6.656
REMARK INTER + INTRA:          -7.655
REMARK INTER:                  -7.027
REMARK INTRA:                  -0.629
REMARK UNBOUND:                -0.521
REMARK SMILES CCN(CC)C(=O)[C@@H]1C=C2c3cccc4[nH]cc(c34)C[C@H]2N(CC)C1
REMARK SMILES IDX 22 1 16 2 21 3 10 4 20 5 25 6 8 7 18 8 11 9 9 10 19 11 15 12
REMARK SMILES IDX 17 13 12 14 14 15 13 16 6 18 7 19 3 20 2 21 1 22 4 23 5 24
REMARK SMILES IDX 23 25 24 26
REMARK H PARENT 16 17
ROOT
ATOM      1  N   UNL     1      97.333 122.650 116.910  1.00  0.00    -0.295 NA
ATOM      2  N   UNL     1      94.596 118.003 119.648  1.00  0.00    -0.361 N 
ATOM      3  C   UNL     1      96.385 121.701 117.569  1.00  0.00     0.091 C 
ATOM      4  C   UNL     1      95.532 122.383 118.679  1.00  0.00    -0.026 C 
ATOM      5  C   UNL     1      97.004 120.337 118.073  1.00  0.00     0.061 C 
ATOM      6  C   UNL     1      97.990 123.509 117.907  1.00  0.00     0.102 C 
ATOM      7  C   UNL     1      96.956 124.424 118.599  1.00  0.00     0.116 C 
ATOM      8  C   UNL     1      95.947 119.520 118.745  1.00  0.00    -0.020 A 
ATOM      9  C   UNL     1      94.492 121.535 119.298  1.00  0.00    -0.011 A 
ATOM     10  C   UNL     1      95.788 123.625 119.130  1.00  0.00    -0.007 C 
ATOM     11  C   UNL     1      94.810 120.169 119.281  1.00  0.00     0.010 A 
ATOM     12  C   UNL     1      93.972 119.219 119.837  1.00  0.00     0.046 A 
ATOM     13  C   UNL     1      95.794 118.174 118.986  1.00  0.00     0.087 A 
ATOM     14  C   UNL     1      93.291 121.915 119.903  1.00  0.00     0.009 A 
ATOM     15  C   UNL     1      92.764 119.577 120.442  1.00  0.00     0.027 A 
ATOM     16  C   UNL     1      92.443 120.946 120.461  1.00  0.00     0.003 A 
ATOM     17  H   UNL     1      94.224 117.115 119.956  1.00  0.00     0.166 HD
ENDROOT
BRANCH   7  18
ATOM     18  C   UNL     1      97.674 125.195 119.724  1.00  0.00     0.230 C 
ATOM     19  O   UNL     1      98.093 124.604 120.724  1.00  0.00    -0.274 OA
ATOM     20  N   UNL     1      97.876 126.578 119.561  1.00  0.00    -0.343 N 
BRANCH  20  21
ATOM     21  C   UNL     1      97.133 127.376 118.572  1.00  0.00     0.116 C 
ATOM     22  C   UNL     1      97.858 128.608 118.051  1.00  0.00     0.027 C 
ENDBRANCH  20  21
BRANCH  20  23
ATOM     23  C   UNL     1      98.468 127.277 120.709  1.00  0.00     0.116 C 
ATOM     24  C   UNL     1      97.417 127.870 121.636  1.00  0.00     0.027 C 
ENDBRANCH  20  23
ENDBRANCH   7  18
BRANCH   1  25
ATOM     25  C   UNL     1      98.270 121.985 116.000  1.00  0.00     0.082 C 
ATOM     26  C   UNL     1      99.075 122.976 115.164  1.00  0.00     0.021 C 
ENDBRANCH   1  25
TORSDOF 4
ENDMDL
MODEL 9
REMARK VINA RESULT:    -5.587      2.296      4.812
REMARK INTER + INTRA:          -7.414
REMARK INTER:                  -6.684
REMARK INTRA:                  -0.731
REMARK UNBOUND:                -0.521
REMARK SMILES CCN(CC)C(=O)[C@@H]1C=C2c3cccc4[nH]cc(c34)C[C@H]2N(CC)C1
REMARK SMILES IDX 22 1 16 2 21 3 10 4 20 5 25 6 8 7 18 8 11 9 9 10 19 11 15 12
REMARK SMILES IDX 17 13 12 14 14 15 13 16 6 18 7 19 3 20 2 21 1 22 4 23 5 24
REMARK SMILES IDX 23 25 24 26
REMARK H PARENT 16 17
ROOT
ATOM      1  N   UNL     1      97.923 121.678 117.556  1.00  0.00    -0.295 NA
ATOM      2  N   UNL     1      99.772 120.281 111.969  1.00  0.00    -0.361 N 
ATOM      3  C   UNL     1      98.666 121.483 116.274  1.00  0.00     0.091 C 
ATOM      4  C   UNL     1      99.369 122.784 115.787  1.00  0.00    -0.026 C 
ATOM      5  C   UNL     1      97.862 120.788 115.104  1.00  0.00     0.061 C 
ATOM      6  C   UNL     1      97.177 122.947 117.540  1.00  0.00     0.102 C 
ATOM      7  C   UNL     1      98.148 124.145 117.477  1.00  0.00     0.116 C 
ATOM      8  C   UNL     1      98.720 120.705 113.882  1.00  0.00    -0.020 A 
ATOM      9  C   UNL     1     100.217 122.641 114.585  1.00  0.00    -0.011 A 
ATOM     10  C   UNL     1      99.142 123.986 116.348  1.00  0.00    -0.007 C 
ATOM     11  C   UNL     1      99.798 121.609 113.732  1.00  0.00     0.010 A 
ATOM     12  C   UNL     1     100.450 121.336 112.543  1.00  0.00     0.046 A 
ATOM     13  C   UNL     1      98.721 119.889 112.774  1.00  0.00     0.087 A 
ATOM     14  C   UNL     1     101.324 123.398 114.193  1.00  0.00     0.009 A 
ATOM     15  C   UNL     1     101.562 122.078 112.134  1.00  0.00     0.027 A 
ATOM     16  C   UNL     1     101.984 123.113 112.988  1.00  0.00     0.003 A 
ATOM     17  H   UNL     1     100.013 119.859 111.084  1.00  0.00     0.166 HD
ENDROOT
BRANCH   7  18
ATOM     18  C   UNL     1      97.315 125.432 117.320  1.00  0.00     0.230 C 
ATOM     19  O   UNL     1      96.303 125.444 116.612  1.00  0.00    -0.274 OA
ATOM     20  N   UNL     1      97.711 126.575 118.039  1.00  0.00    -0.343 N 
BRANCH  20  21
ATOM     21  C   UNL     1      99.053 126.715 118.628  1.00  0.00     0.116 C 
ATOM     22  C   UNL     1     100.092 127.373 117.732  1.00  0.00     0.027 C 
ENDBRANCH  20  21
BRANCH  20  23
ATOM     23  C   UNL     1      96.943 127.797 117.769  1.00  0.00     0.116 C 
ATOM     24  C   UNL     1      96.815 128.689 118.995  1.00  0.00     0.027 C 
ENDBRANCH  20  23
ENDBRANCH   7  18
BRANCH   1  25
ATOM     25  C   UNL     1      97.105 120.521 117.927  1.00  0.00     0.082 C 
ATOM     26  C   UNL     1      95.634 120.882 118.113  1.00  0.00     0.021 C 
ENDBRANCH   1  25
TORSDOF 4
ENDMDL
MODEL 10
REMARK VINA RESULT:    -5.418      2.559      7.228
REMARK INTER + INTRA:          -7.206
REMARK INTER:                  -7.465
REMARK INTRA:                   0.259
REMARK UNBOUND:                -0.521
REMARK SMILES CCN(CC)C(=O)[C@@H]1C=C2c3cccc4[nH]cc(c34)C[C@H]2N(CC)C1
REMARK SMILES IDX 22 1 16 2 21 3 10 4 20 5 25 6 8 7 18 8 11 9 9 10 19 11 15 12
REMARK SMILES IDX 17 13 12 14 14 15 13 16 6 18 7 19 3 20 2 21 1 22 4 23 5 24
REMARK SMILES IDX 23 25 24 26
REMARK H PARENT 16 17
ROOT
ATOM      1  N   UNL     1      99.137 122.532 113.738  1.00  0.00    -0.295 NA
ATOM      2  N   UNL     1      96.843 120.908 119.093  1.00  0.00    -0.361 N 
ATOM      3  C   UNL     1      98.430 122.438 115.051  1.00  0.00     0.091 C 
ATOM      4  C   UNL     1      98.644 123.700 115.937  1.00  0.00    -0.026 C 
ATOM      5  C   UNL     1      98.665 121.109 115.873  1.00  0.00     0.061 C 
ATOM      6  C   UNL     1     100.493 123.078 113.912  1.00  0.00     0.102 C 
ATOM      7  C   UNL     1     100.428 124.536 114.416  1.00  0.00     0.116 C 
ATOM      8  C   UNL     1      97.932 121.183 117.174  1.00  0.00    -0.020 A 
ATOM      9  C   UNL     1      97.883 123.729 117.203  1.00  0.00    -0.011 A 
ATOM     10  C   UNL     1      99.541 124.656 115.634  1.00  0.00    -0.007 C 
ATOM     11  C   UNL     1      97.607 122.451 117.712  1.00  0.00     0.010 A 
ATOM     12  C   UNL     1      96.926 122.271 118.903  1.00  0.00     0.046 A 
ATOM     13  C   UNL     1      97.449 120.238 118.049  1.00  0.00     0.087 A 
ATOM     14  C   UNL     1      97.448 124.830 117.945  1.00  0.00     0.009 A 
ATOM     15  C   UNL     1      96.477 123.359 119.657  1.00  0.00     0.027 A 
ATOM     16  C   UNL     1      96.753 124.642 119.149  1.00  0.00     0.003 A 
ATOM     17  H   UNL     1      96.401 120.466 119.887  1.00  0.00     0.166 HD
ENDROOT
BRANCH   7  18
ATOM     18  C   UNL     1     101.866 125.005 114.714  1.00  0.00     0.230 C 
ATOM     19  O   UNL     1     102.764 124.186 114.931  1.00  0.00    -0.274 OA
ATOM     20  N   UNL     1     102.135 126.386 114.687  1.00  0.00    -0.343 N 
BRANCH  20  21
ATOM     21  C   UNL     1     101.072 127.402 114.755  1.00  0.00     0.116 C 
ATOM     22  C   UNL     1     100.681 127.844 116.158  1.00  0.00     0.027 C 
ENDBRANCH  20  21
BRANCH  20  23
ATOM     23  C   UNL     1     103.494 126.780 115.083  1.00  0.00     0.116 C 
ATOM     24  C   UNL     1     103.526 127.504 116.421  1.00  0.00     0.027 C 
ENDBRANCH  20  23
ENDBRANCH   7  18
BRANCH   1  25
ATOM     25  C   UNL     1      99.103 121.281 112.976  1.00  0.00     0.082 C 
ATOM     26  C   UNL     1     100.485 120.856 112.488  1.00  0.00     0.021 C 
ENDBRANCH   1  25
TORSDOF 4
ENDMDL
MODEL 11
REMARK VINA RESULT:    -5.314      2.054      4.197
REMARK INTER + INTRA:          -7.078
REMARK INTER:                  -6.434
REMARK INTRA:                  -0.644
REMARK UNBOUND:                -0.521
REMARK SMILES CCN(CC)C(=O)[C@@H]1C=C2c3cccc4[nH]cc(c34)C[C@H]2N(CC)C1
REMARK SMILES IDX 22 1 16 2 21 3 10 4 20 5 25 6 8 7 18 8 11 9 9 10 19 11 15 12
REMARK SMILES IDX 17 13 12 14 14 15 13 16 6 18 7 19 3 20 2 21 1 22 4 23 5 24
REMARK SMILES IDX 23 25 24 26
REMARK H PARENT 16 17
ROOT
ATOM      1  N   UNL     1      99.119 120.668 115.326  1.00  0.00    -0.295 NA
ATOM      2  N   UNL     1     101.324 125.190 111.968  1.00  0.00    -0.361 N 
ATOM      3  C   UNL     1      99.823 121.868 114.782  1.00  0.00     0.091 C 
ATOM      4  C   UNL     1      99.693 123.110 115.712  1.00  0.00    -0.026 C 
ATOM      5  C   UNL     1      99.506 122.238 113.278  1.00  0.00     0.061 C 
ATOM      6  C   UNL     1      97.801 121.036 115.868  1.00  0.00     0.102 C 
ATOM      7  C   UNL     1      97.960 121.970 117.088  1.00  0.00     0.116 C 
ATOM      8  C   UNL     1     100.248 123.480 112.896  1.00  0.00    -0.020 A 
ATOM      9  C   UNL     1     100.458 124.304 115.296  1.00  0.00    -0.011 A 
ATOM     10  C   UNL     1      98.857 123.143 116.766  1.00  0.00    -0.007 C 
ATOM     11  C   UNL     1     100.655 124.380 113.909  1.00  0.00     0.010 A 
ATOM     12  C   UNL     1     101.327 125.438 113.325  1.00  0.00     0.046 A 
ATOM     13  C   UNL     1     100.673 124.003 111.697  1.00  0.00     0.087 A 
ATOM     14  C   UNL     1     100.965 125.343 116.081  1.00  0.00     0.009 A 
ATOM     15  C   UNL     1     101.846 126.485 114.091  1.00  0.00     0.027 A 
ATOM     16  C   UNL     1     101.651 126.411 115.483  1.00  0.00     0.003 A 
ATOM     17  H   UNL     1     101.739 125.795 111.274  1.00  0.00     0.166 HD
ENDROOT
BRANCH   7  18
ATOM     18  C   UNL     1      96.556 122.434 117.524  1.00  0.00     0.230 C 
ATOM     19  O   UNL     1      96.108 123.522 117.150  1.00  0.00    -0.274 OA
ATOM     20  N   UNL     1      95.784 121.566 118.318  1.00  0.00    -0.343 N 
BRANCH  20  21
ATOM     21  C   UNL     1      96.369 120.428 119.047  1.00  0.00     0.116 C 
ATOM     22  C   UNL     1      95.674 119.090 118.834  1.00  0.00     0.027 C 
ENDBRANCH  20  21
BRANCH  20  23
ATOM     23  C   UNL     1      94.501 122.103 118.791  1.00  0.00     0.116 C 
ATOM     24  C   UNL     1      94.516 122.428 120.278  1.00  0.00     0.027 C 
ENDBRANCH  20  23
ENDBRANCH   7  18
BRANCH   1  25
ATOM     25  C   UNL     1      99.071 119.552 114.378  1.00  0.00     0.082 C 
ATOM     26  C   UNL     1      97.646 119.204 113.957  1.00  0.00     0.021 C 
ENDBRANCH   1  25
TORSDOF 4
ENDMDL
MODEL 12
REMARK VINA RESULT:    -5.210      2.374      5.003
REMARK INTER + INTRA:          -6.949
REMARK INTER:                  -6.393
REMARK INTRA:                  -0.556
REMARK UNBOUND:                -0.521
REMARK SMILES CCN(CC)C(=O)[C@@H]1C=C2c3cccc4[nH]cc(c34)C[C@H]2N(CC)C1
REMARK SMILES IDX 22 1 16 2 21 3 10 4 20 5 25 6 8 7 18 8 11 9 9 10 19 11 15 12
REMARK SMILES IDX 17 13 12 14 14 15 13 16 6 18 7 19 3 20 2 21 1 22 4 23 5 24
REMARK SMILES IDX 23 25 24 26
REMARK H PARENT 16 17
ROOT
ATOM      1  N   UNL     1      96.635 121.920 119.404  1.00  0.00    -0.295 NA
ATOM      2  N   UNL     1      96.537 118.728 114.267  1.00  0.00    -0.361 N 
ATOM      3  C   UNL     1      96.945 121.180 118.143  1.00  0.00     0.091 C 
ATOM      4  C   UNL     1      97.898 121.973 117.202  1.00  0.00    -0.026 C 
ATOM      5  C   UNL     1      95.704 120.603 117.353  1.00  0.00     0.061 C 
ATOM      6  C   UNL     1      96.365 123.340 119.123  1.00  0.00     0.102 C 
ATOM      7  C   UNL     1      97.631 124.033 118.575  1.00  0.00     0.116 C 
ATOM      8  C   UNL     1      96.169 119.931 116.101  1.00  0.00    -0.020 A 
ATOM      9  C   UNL     1      98.341 121.257 115.988  1.00  0.00    -0.011 A 
ATOM     10  C   UNL     1      98.218 123.263 117.414  1.00  0.00    -0.007 C 
ATOM     11  C   UNL     1      97.416 120.300 115.542  1.00  0.00     0.010 A 
ATOM     12  C   UNL     1      97.640 119.545 114.405  1.00  0.00     0.046 A 
ATOM     13  C   UNL     1      95.639 118.953 115.291  1.00  0.00     0.087 A 
ATOM     14  C   UNL     1      99.508 121.429 115.239  1.00  0.00     0.009 A 
ATOM     15  C   UNL     1      98.802 119.698 113.645  1.00  0.00     0.027 A 
ATOM     16  C   UNL     1      99.731 120.656 114.090  1.00  0.00     0.003 A 
ATOM     17  H   UNL     1      96.408 118.061 113.519  1.00  0.00     0.166 HD
ENDROOT
BRANCH   7  18
ATOM     18  C   UNL     1      97.254 125.471 118.168  1.00  0.00     0.230 C 
ATOM     19  O   UNL     1      96.861 125.719 117.024  1.00  0.00    -0.274 OA
ATOM     20  N   UNL     1      97.326 126.481 119.145  1.00  0.00    -0.343 N 
BRANCH  20  21
ATOM     21  C   UNL     1      98.076 126.317 120.401  1.00  0.00     0.116 C 
ATOM     22  C   UNL     1      97.818 127.380 121.459  1.00  0.00     0.027 C 
ENDBRANCH  20  21
BRANCH  20  23
ATOM     23  C   UNL     1      97.058 127.846 118.673  1.00  0.00     0.116 C 
ATOM     24  C   UNL     1      98.304 128.530 118.128  1.00  0.00     0.027 C 
ENDBRANCH  20  23
ENDBRANCH   7  18
BRANCH   1  25
ATOM     25  C   UNL     1      95.595 121.275 120.208  1.00  0.00     0.082 C 
ATOM     26  C   UNL     1      94.404 122.193 120.470  1.00  0.00     0.021 C 
ENDBRANCH   1  25
TORSDOF 4
ENDMDL
MODEL 13
REMARK VINA RESULT:    -5.176      1.955      6.716
REMARK INTER + INTRA:          -6.907
REMARK INTER:                  -6.530
REMARK INTRA:                  -0.377
REMARK UNBOUND:                -0.521
REMARK SMILES CCN(CC)C(=O)[C@@H]1C=C2c3cccc4[nH]cc(c34)C[C@H]2N(CC)C1
REMARK SMILES IDX 22 1 16 2 21 3 10 4 20 5 25 6 8 7 18 8 11 9 9 10 19 11 15 12
REMARK SMILES IDX 17 13 12 14 14 15 13 16 6 18 7 19 3 20 2 21 1 22 4 23 5 24
REMARK SMILES IDX 23 25 24 26
REMARK H PARENT 16 17
ROOT
ATOM      1  N   UNL     1      96.110 122.456 118.087  1.00  0.00    -0.295 NA
ATOM      2  N   UNL     1      98.214 127.247 121.120  1.00  0.00    -0.361 N 
ATOM      3  C   UNL     1      96.556 123.804 118.551  1.00  0.00     0.091 C 
ATOM      4  C   UNL     1      97.466 124.523 117.511  1.00  0.00    -0.026 C 
ATOM      5  C   UNL     1      97.177 123.869 120.003  1.00  0.00     0.061 C 
ATOM      6  C   UNL     1      97.223 121.723 117.463  1.00  0.00     0.102 C 
ATOM      7  C   UNL     1      97.685 122.435 116.174  1.00  0.00     0.116 C 
ATOM      8  C   UNL     1      97.614 125.268 120.304  1.00  0.00    -0.020 A 
ATOM      9  C   UNL     1      97.854 125.908 117.851  1.00  0.00    -0.011 A 
ATOM     10  C   UNL     1      97.961 123.900 116.427  1.00  0.00    -0.007 C 
ATOM     11  C   UNL     1      97.902 126.147 119.232  1.00  0.00     0.010 A 
ATOM     12  C   UNL     1      98.270 127.376 119.748  1.00  0.00     0.046 A 
ATOM     13  C   UNL     1      97.816 125.972 121.468  1.00  0.00     0.087 A 
ATOM     14  C   UNL     1      98.196 126.961 116.998  1.00  0.00     0.009 A 
ATOM     15  C   UNL     1      98.611 128.444 118.913  1.00  0.00     0.027 A 
ATOM     16  C   UNL     1      98.564 128.208 117.527  1.00  0.00     0.003 A 
ATOM     17  H   UNL     1      98.437 127.984 121.774  1.00  0.00     0.166 HD
ENDROOT
BRANCH   7  18
ATOM     18  C   UNL     1      98.936 121.707 115.644  1.00  0.00     0.230 C 
ATOM     19  O   UNL     1      99.542 120.899 116.354  1.00  0.00    -0.274 OA
ATOM     20  N   UNL     1      99.340 121.954 114.319  1.00  0.00    -0.343 N 
BRANCH  20  21
ATOM     21  C   UNL     1      98.868 123.117 113.550  1.00  0.00     0.116 C 
ATOM     22  C   UNL     1      99.944 124.118 113.152  1.00  0.00     0.027 C 
ENDBRANCH  20  21
BRANCH  20  23
ATOM     23  C   UNL     1     100.597 121.316 113.905  1.00  0.00     0.116 C 
ATOM     24  C   UNL     1     100.434 120.464 112.654  1.00  0.00     0.027 C 
ENDBRANCH  20  23
ENDBRANCH   7  18
BRANCH   1  25
ATOM     25  C   UNL     1      95.415 121.692 119.126  1.00  0.00     0.082 C 
ATOM     26  C   UNL     1      96.043 120.322 119.363  1.00  0.00     0.021 C 
ENDBRANCH   1  25
TORSDOF 4
ENDMDL
MODEL 14
REMARK VINA RESULT:    -5.136      2.248      7.260
REMARK INTER + INTRA:          -6.858
REMARK INTER:                  -6.621
REMARK INTRA:                  -0.237
REMARK UNBOUND:                -0.521
REMARK SMILES CCN(CC)C(=O)[C@@H]1C=C2c3cccc4[nH]cc(c34)C[C@H]2N(CC)C1
REMARK SMILES IDX 22 1 16 2 21 3 10 4 20 5 25 6 8 7 18 8 11 9 9 10 19 11 15 12
REMARK SMILES IDX 17 13 12 14 14 15 13 16 6 18 7 19 3 20 2 21 1 22 4 23 5 24
REMARK SMILES IDX 23 25 24 26
REMARK H PARENT 16 17
ROOT
ATOM      1  N   UNL     1      99.063 121.398 114.834  1.00  0.00    -0.295 NA
ATOM      2  N   UNL     1      97.159 119.916 120.381  1.00  0.00    -0.361 N 
ATOM      3  C   UNL     1      98.325 121.221 116.122  1.00  0.00     0.091 C 
ATOM      4  C   UNL     1      97.796 122.567 116.698  1.00  0.00    -0.026 C 
ATOM      5  C   UNL     1      99.059 120.367 117.231  1.00  0.00     0.061 C 
ATOM      6  C   UNL     1      99.959 122.563 114.901  1.00  0.00     0.102 C 
ATOM      7  C   UNL     1      99.144 123.865 115.055  1.00  0.00     0.116 C 
ATOM      8  C   UNL     1      98.220 120.318 118.468  1.00  0.00    -0.020 A 
ATOM      9  C   UNL     1      96.959 122.459 117.911  1.00  0.00    -0.011 A 
ATOM     10  C   UNL     1      98.159 123.763 116.198  1.00  0.00    -0.007 C 
ATOM     11  C   UNL     1      97.263 121.336 118.695  1.00  0.00     0.010 A 
ATOM     12  C   UNL     1      96.605 121.077 119.883  1.00  0.00     0.046 A 
ATOM     13  C   UNL     1      98.139 119.446 119.529  1.00  0.00     0.087 A 
ATOM     14  C   UNL     1      95.961 123.321 118.372  1.00  0.00     0.009 A 
ATOM     15  C   UNL     1      95.600 121.923 120.360  1.00  0.00     0.027 A 
ATOM     16  C   UNL     1      95.293 123.050 119.576  1.00  0.00     0.003 A 
ATOM     17  H   UNL     1      96.884 119.476 121.247  1.00  0.00     0.166 HD
ENDROOT
BRANCH   7  18
ATOM     18  C   UNL     1     100.132 125.030 115.262  1.00  0.00     0.230 C 
ATOM     19  O   UNL     1     100.277 125.542 116.376  1.00  0.00    -0.274 OA
ATOM     20  N   UNL     1     100.894 125.461 114.160  1.00  0.00    -0.343 N 
BRANCH  20  21
ATOM     21  C   UNL     1     100.543 125.120 112.772  1.00  0.00     0.116 C 
ATOM     22  C   UNL     1     101.391 124.029 112.133  1.00  0.00     0.027 C 
ENDBRANCH  20  21
BRANCH  20  23
ATOM     23  C   UNL     1     101.739 126.640 114.390  1.00  0.00     0.116 C 
ATOM     24  C   UNL     1     103.021 126.304 115.137  1.00  0.00     0.027 C 
ENDBRANCH  20  23
ENDBRANCH   7  18
BRANCH   1  25
ATOM     25  C   UNL     1      99.726 120.174 114.380  1.00  0.00     0.082 C 
ATOM     26  C   UNL     1     100.190 120.264 112.929  1.00  0.00     0.021 C 
ENDBRANCH   1  25
TORSDOF 4
ENDMDL
MODEL 15
REMARK VINA RESULT:    -5.099      3.781      7.715
REMARK INTER + INTRA:          -6.813
REMARK INTER:                  -6.406
REMARK INTRA:                  -0.406
REMARK UNBOUND:                -0.521
REMARK SMILES CCN(CC)C(=O)[C@@H]1C=C2c3cccc4[nH]cc(c34)C[C@H]2N(CC)C1
REMARK SMILES IDX 22 1 16 2 21 3 10 4 20 5 25 6 8 7 18 8 11 9 9 10 19 11 15 12
REMARK SMILES IDX 17 13 12 14 14 15 13 16 6 18 7 19 3 20 2 21 1 22 4 23 5 24
REMARK SMILES IDX 23 25 24 26
REMARK H PARENT 16 17
ROOT
ATOM      1  N   UNL     1      99.334 126.788 119.251  1.00  0.00    -0.295 NA
ATOM      2  N   UNL     1      95.817 131.252 121.321  1.00  0.00    -0.361 N 
ATOM      3  C   UNL     1      98.429 127.687 120.029  1.00  0.00     0.091 C 
ATOM      4  C   UNL     1      97.185 126.939 120.594  1.00  0.00    -0.026 C 
ATOM      5  C   UNL     1      98.017 129.039 119.322  1.00  0.00     0.061 C 
ATOM      6  C   UNL     1      98.558 125.898 118.372  1.00  0.00     0.102 C 
ATOM      7  C   UNL     1      97.691 124.933 119.209  1.00  0.00     0.116 C 
ATOM      8  C   UNL     1      97.080 129.804 120.202  1.00  0.00    -0.020 A 
ATOM      9  C   UNL     1      96.303 127.738 121.470  1.00  0.00    -0.011 A 
ATOM     10  C   UNL     1      96.866 125.684 120.230  1.00  0.00    -0.007 C 
ATOM     11  C   UNL     1      96.327 129.110 121.178  1.00  0.00     0.010 A 
ATOM     12  C   UNL     1      95.548 130.017 121.873  1.00  0.00     0.046 A 
ATOM     13  C   UNL     1      96.747 131.135 120.307  1.00  0.00     0.087 A 
ATOM     14  C   UNL     1      95.455 127.307 122.494  1.00  0.00     0.009 A 
ATOM     15  C   UNL     1      94.697 129.609 122.904  1.00  0.00     0.027 A 
ATOM     16  C   UNL     1      94.671 128.233 123.199  1.00  0.00     0.003 A 
ATOM     17  H   UNL     1      95.390 132.118 121.619  1.00  0.00     0.166 HD
ENDROOT
BRANCH   7  18
ATOM     18  C   UNL     1      96.800 124.128 118.243  1.00  0.00     0.230 C 
ATOM     19  O   UNL     1      96.567 124.545 117.104  1.00  0.00    -0.274 OA
ATOM     20  N   UNL     1      96.298 122.887 118.677  1.00  0.00    -0.343 N 
BRANCH  20  21
ATOM     21  C   UNL     1      96.270 122.496 120.096  1.00  0.00     0.116 C 
ATOM     22  C   UNL     1      97.469 121.689 120.575  1.00  0.00     0.027 C 
ENDBRANCH  20  21
BRANCH  20  23
ATOM     23  C   UNL     1      95.371 122.215 117.757  1.00  0.00     0.116 C 
ATOM     24  C   UNL     1      95.809 120.798 117.418  1.00  0.00     0.027 C 
ENDBRANCH  20  23
ENDBRANCH   7  18
BRANCH   1  25
ATOM     25  C   UNL     1     100.403 127.511 118.557  1.00  0.00     0.082 C 
ATOM     26  C   UNL     1     100.325 127.354 117.041  1.00  0.00     0.021 C 
ENDBRANCH   1  25
TORSDOF 4
ENDMDL
MODEL 16
REMARK VINA RESULT:    -4.990      4.450      9.384
REMARK INTER + INTRA:          -6.678
REMARK INTER:                  -7.015
REMARK INTRA:                   0.337
REMARK UNBOUND:                -0.521
REMARK SMILES CCN(CC)C(=O)[C@@H]1C=C2c3cccc4[nH]cc(c34)C[C@H]2N(CC)C1
REMARK SMILES IDX 22 1 16 2 21 3 10 4 20 5 25 6 8 7 18 8 11 9 9 10 19 11 15 12
REMARK SMILES IDX 17 13 12 14 14 15 13 16 6 18 7 19 3 20 2 21 1 22 4 23 5 24
REMARK SMILES IDX 23 25 24 26
REMARK H PARENT 16 17
ROOT
ATOM      1  N   UNL     1      97.750 126.157 119.533  1.00  0.00    -0.295 NA
ATOM      2  N   UNL     1      98.209 129.956 124.217  1.00  0.00    -0.361 N 
ATOM      3  C   UNL     1      97.664 127.292 120.501  1.00  0.00     0.091 C 
ATOM      4  C   UNL     1      97.912 128.674 119.827  1.00  0.00    -0.026 C 
ATOM      5  C   UNL     1      98.506 127.138 121.829  1.00  0.00     0.061 C 
ATOM      6  C   UNL     1      98.898 126.330 118.627  1.00  0.00     0.102 C 
ATOM      7  C   UNL     1      98.702 127.576 117.737  1.00  0.00     0.116 C 
ATOM      8  C   UNL     1      98.353 128.365 122.671  1.00  0.00    -0.020 A 
ATOM      9  C   UNL     1      97.731 129.853 120.700  1.00  0.00    -0.011 A 
ATOM     10  C   UNL     1      98.368 128.795 118.567  1.00  0.00    -0.007 C 
ATOM     11  C   UNL     1      97.983 129.584 122.053  1.00  0.00     0.010 A 
ATOM     12  C   UNL     1      97.891 130.567 123.022  1.00  0.00     0.046 A 
ATOM     13  C   UNL     1      98.489 128.620 124.015  1.00  0.00     0.087 A 
ATOM     14  C   UNL     1      97.382 131.160 120.352  1.00  0.00     0.009 A 
ATOM     15  C   UNL     1      97.539 131.880 122.696  1.00  0.00     0.027 A 
ATOM     16  C   UNL     1      97.286 132.152 121.340  1.00  0.00     0.003 A 
ATOM     17  H   UNL     1      98.233 130.426 125.111  1.00  0.00     0.166 HD
ENDROOT
BRANCH   7  18
ATOM     18  C   UNL     1      99.989 127.787 116.915  1.00  0.00     0.230 C 
ATOM     19  O   UNL     1     100.511 128.903 116.838  1.00  0.00    -0.274 OA
ATOM     20  N   UNL     1     100.573 126.668 116.293  1.00  0.00    -0.343 N 
BRANCH  20  21
ATOM     21  C   UNL     1      99.843 125.407 116.081  1.00  0.00     0.116 C 
ATOM     22  C   UNL     1     100.597 124.338 115.304  1.00  0.00     0.027 C 
ENDBRANCH  20  21
BRANCH  20  23
ATOM     23  C   UNL     1     101.734 126.946 115.438  1.00  0.00     0.116 C 
ATOM     24  C   UNL     1     103.007 127.180 116.239  1.00  0.00     0.027 C 
ENDBRANCH  20  23
ENDBRANCH   7  18
BRANCH   1  25
ATOM     25  C   UNL     1      97.708 124.845 120.181  1.00  0.00     0.082 C 
ATOM     26  C   UNL     1      96.959 123.807 119.350  1.00  0.00     0.021 C 
ENDBRANCH   1  25
TORSDOF 4
ENDMDL
MODEL 17
REMARK VINA RESULT:    -4.865      2.749      6.535
REMARK INTER + INTRA:          -6.523
REMARK INTER:                  -5.861
REMARK INTRA:                  -0.662
REMARK UNBOUND:                -0.521
REMARK SMILES CCN(CC)C(=O)[C@@H]1C=C2c3cccc4[nH]cc(c34)C[C@H]2N(CC)C1
REMARK SMILES IDX 22 1 16 2 21 3 10 4 20 5 25 6 8 7 18 8 11 9 9 10 19 11 15 12
REMARK SMILES IDX 17 13 12 14 14 15 13 16 6 18 7 19 3 20 2 21 1 22 4 23 5 24
REMARK SMILES IDX 23 25 24 26
REMARK H PARENT 16 17
ROOT
ATOM      1  N   UNL     1      97.215 124.306 117.317  1.00  0.00    -0.295 NA
ATOM      2  N   UNL     1      95.623 118.965 119.668  1.00  0.00    -0.361 N 
ATOM      3  C   UNL     1      96.535 123.148 117.973  1.00  0.00     0.091 C 
ATOM      4  C   UNL     1      95.889 123.528 119.337  1.00  0.00    -0.026 C 
ATOM      5  C   UNL     1      97.381 121.818 118.085  1.00  0.00     0.061 C 
ATOM      6  C   UNL     1      97.991 125.080 118.300  1.00  0.00     0.102 C 
ATOM      7  C   UNL     1      97.053 125.729 119.340  1.00  0.00     0.116 C 
ATOM      8  C   UNL     1      96.585 120.772 118.799  1.00  0.00    -0.020 A 
ATOM      9  C   UNL     1      95.100 122.463 119.991  1.00  0.00    -0.011 A 
ATOM     10  C   UNL     1      96.115 124.708 119.944  1.00  0.00    -0.007 C 
ATOM     11  C   UNL     1      95.537 121.171 119.663  1.00  0.00     0.010 A 
ATOM     12  C   UNL     1      94.941 120.042 120.196  1.00  0.00     0.046 A 
ATOM     13  C   UNL     1      96.621 119.397 118.818  1.00  0.00     0.087 A 
ATOM     14  C   UNL     1      94.033 122.579 120.885  1.00  0.00     0.009 A 
ATOM     15  C   UNL     1      93.870 120.136 121.088  1.00  0.00     0.027 A 
ATOM     16  C   UNL     1      93.429 121.430 121.419  1.00  0.00     0.003 A 
ATOM     17  H   UNL     1      95.418 117.999 119.879  1.00  0.00     0.166 HD
ENDROOT
BRANCH   7  18
ATOM     18  C   UNL     1      97.924 126.404 120.418  1.00  0.00     0.230 C 
ATOM     19  O   UNL     1      98.984 125.888 120.785  1.00  0.00    -0.274 OA
ATOM     20  N   UNL     1      97.502 127.643 120.935  1.00  0.00    -0.343 N 
BRANCH  20  21
ATOM     21  C   UNL     1      96.125 128.139 120.782  1.00  0.00     0.116 C 
ATOM     22  C   UNL     1      95.173 127.784 121.915  1.00  0.00     0.027 C 
ENDBRANCH  20  21
BRANCH  20  23
ATOM     23  C   UNL     1      98.314 128.186 122.032  1.00  0.00     0.116 C 
ATOM     24  C   UNL     1      98.175 129.696 122.169  1.00  0.00     0.027 C 
ENDBRANCH  20  23
ENDBRANCH   7  18
BRANCH   1  25
ATOM     25  C   UNL     1      97.986 123.923 116.132  1.00  0.00     0.082 C 
ATOM     26  C   UNL     1      99.438 124.386 116.205  1.00  0.00     0.021 C 
ENDBRANCH   1  25
TORSDOF 4
ENDMDL
MODEL 18
REMARK VINA RESULT:    -4.701      3.233      6.914
REMARK INTER + INTRA:          -6.321
REMARK INTER:                  -5.633
REMARK INTRA:                  -0.689
REMARK UNBOUND:                -0.521
REMARK SMILES CCN(CC)C(=O)[C@@H]1C=C2c3cccc4[nH]cc(c34)C[C@H]2N(CC)C1
REMARK SMILES IDX 22 1 16 2 21 3 10 4 20 5 25 6 8 7 18 8 11 9 9 10 19 11 15 12
REMARK SMILES IDX 17 13 12 14 14 15 13 16 6 18 7 19 3 20 2 21 1 22 4 23 5 24
REMARK SMILES IDX 23 25 24 26
REMARK H PARENT 16 17
ROOT
ATOM      1  N   UNL     1     101.213 126.054 115.632  1.00  0.00    -0.295 NA
ATOM      2  N   UNL     1      97.166 128.436 119.443  1.00  0.00    -0.361 N 
ATOM      3  C   UNL     1     100.256 126.352 116.740  1.00  0.00     0.091 C 
ATOM      4  C   UNL     1      99.283 125.171 117.023  1.00  0.00    -0.026 C 
ATOM      5  C   UNL     1      99.482 127.726 116.639  1.00  0.00     0.061 C 
ATOM      6  C   UNL     1     100.526 125.393 114.511  1.00  0.00     0.102 C 
ATOM      7  C   UNL     1      99.998 124.007 114.942  1.00  0.00     0.116 C 
ATOM      8  C   UNL     1      98.536 127.859 117.790  1.00  0.00    -0.020 A 
ATOM      9  C   UNL     1      98.382 125.348 118.181  1.00  0.00    -0.011 A 
ATOM     10  C   UNL     1      99.183 124.102 116.212  1.00  0.00    -0.007 C 
ATOM     11  C   UNL     1      98.083 126.692 118.449  1.00  0.00     0.010 A 
ATOM     12  C   UNL     1      97.235 127.059 119.478  1.00  0.00     0.046 A 
ATOM     13  C   UNL     1      97.953 128.932 118.423  1.00  0.00     0.087 A 
ATOM     14  C   UNL     1      97.789 124.377 118.993  1.00  0.00     0.009 A 
ATOM     15  C   UNL     1      96.635 126.105 120.305  1.00  0.00     0.027 A 
ATOM     16  C   UNL     1      96.934 124.756 120.038  1.00  0.00     0.003 A 
ATOM     17  H   UNL     1      96.614 128.999 120.075  1.00  0.00     0.166 HD
ENDROOT
BRANCH   7  18
ATOM     18  C   UNL     1      99.170 123.426 113.779  1.00  0.00     0.230 C 
ATOM     19  O   UNL     1      98.321 124.115 113.204  1.00  0.00    -0.274 OA
ATOM     20  N   UNL     1      99.437 122.108 113.364  1.00  0.00    -0.343 N 
BRANCH  20  21
ATOM     21  C   UNL     1     100.186 121.152 114.195  1.00  0.00     0.116 C 
ATOM     22  C   UNL     1      99.361 120.399 115.229  1.00  0.00     0.027 C 
ENDBRANCH  20  21
BRANCH  20  23
ATOM     23  C   UNL     1      98.547 121.573 112.326  1.00  0.00     0.116 C 
ATOM     24  C   UNL     1      99.131 120.352 111.628  1.00  0.00     0.027 C 
ENDBRANCH  20  23
ENDBRANCH   7  18
BRANCH   1  25
ATOM     25  C   UNL     1     102.005 127.219 115.228  1.00  0.00     0.082 C 
ATOM     26  C   UNL     1     103.152 127.507 116.192  1.00  0.00     0.021 C 
ENDBRANCH   1  25
TORSDOF 4
ENDMDL
