MODEL 1
REMARK VINA RESULT:    -9.040      0.000      0.000
REMARK INTER + INTRA:         -11.043
REMARK INTER:                 -10.625
REMARK INTRA:                  -0.418
REMARK UNBOUND:                -0.418
REMARK SMILES CCN(CC)C(=O)[C@@H]1C=C2c3cccc4[nH]cc(c34)C[C@H]2N(C)C1
REMARK SMILES IDX 7 1 3 2 6 3 8 4 24 5 9 6 22 7 10 8 21 9 11 10 20 11 19 12
REMARK SMILES IDX 12 13 18 14 15 15 13 16 17 17 16 18 14 19 23 20 2 22 1 23
REMARK SMILES IDX 4 24 5 25
REMARK H PARENT 16 21
ROOT
ATOM      1  O   UNL     1     126.932 135.192 123.832  1.00  0.00    -0.274 OA
ATOM      2  N   UNL     1     124.944 135.355 124.950  1.00  0.00    -0.343 N 
ATOM      3  C   UNL     1     125.696 135.102 123.802  1.00  0.00     0.230 C 
ENDROOT
BRANCH   3   4
ATOM      4  C   UNL     1     125.046 134.707 122.464  1.00  0.00     0.116 C 
ATOM      5  C   UNL     1     124.832 133.185 122.350  1.00  0.00     0.102 C 
ATOM      6  C   UNL     1     125.744 135.308 121.271  1.00  0.00    -0.007 C 
ATOM      7  N   UNL     1     124.376 132.724 121.023  1.00  0.00    -0.298 NA
ATOM      8  C   UNL     1     125.889 134.602 120.136  1.00  0.00    -0.026 C 
ATOM      9  C   UNL     1     125.284 133.184 119.940  1.00  0.00     0.091 C 
ATOM     10  C   UNL     1     126.766 135.068 119.042  1.00  0.00    -0.011 A 
ATOM     11  C   UNL     1     126.392 132.104 119.652  1.00  0.00     0.061 C 
ATOM     12  C   UNL     1     127.418 134.015 118.379  1.00  0.00     0.010 A 
ATOM     13  C   UNL     1     127.047 136.372 118.630  1.00  0.00     0.009 A 
ATOM     14  C   UNL     1     127.318 132.617 118.593  1.00  0.00    -0.020 A 
ATOM     15  C   UNL     1     128.312 134.248 117.348  1.00  0.00     0.046 A 
ATOM     16  C   UNL     1     127.950 136.599 117.581  1.00  0.00     0.003 A 
ATOM     17  C   UNL     1     128.162 132.011 117.691  1.00  0.00     0.087 A 
ATOM     18  N   UNL     1     128.756 133.007 116.943  1.00  0.00    -0.361 N 
ATOM     19  C   UNL     1     128.604 135.544 116.919  1.00  0.00     0.027 A 
ATOM     20  C   UNL     1     122.995 133.144 120.765  1.00  0.00     0.106 C 
ATOM     21  H   UNL     1     129.422 132.852 116.198  1.00  0.00     0.166 HD
ENDBRANCH   3   4
BRANCH   2  22
ATOM     22  C   UNL     1     125.697 135.649 126.175  1.00  0.00     0.116 C 
ATOM     23  C   UNL     1     125.938 134.404 127.017  1.00  0.00     0.027 C 
ENDBRANCH   2  22
BRANCH   2  24
ATOM     24  C   UNL     1     123.501 135.127 125.111  1.00  0.00     0.116 C 
ATOM     25  C   UNL     1     122.763 136.351 125.639  1.00  0.00     0.027 C 
ENDBRANCH   2  24
TORSDOF 3
ENDMDL
MODEL 2
REMARK VINA RESULT:    -8.644      3.254      3.721
REMARK INTER + INTRA:         -10.578
REMARK INTER:                 -10.186
REMARK INTRA:                  -0.392
REMARK UNBOUND:                -0.418
REMARK SMILES CCN(CC)C(=O)[C@@H]1C=C2c3cccc4[nH]cc(c34)C[C@H]2N(C)C1
REMARK SMILES IDX 7 1 3 2 6 3 8 4 24 5 9 6 22 7 10 8 21 9 11 10 20 11 19 12
REMARK SMILES IDX 12 13 18 14 15 15 13 16 17 17 16 18 14 19 23 20 2 22 1 23
REMARK SMILES IDX 4 24 5 25
REMARK H PARENT 16 21
ROOT
ATOM      1  O   UNL     1     126.233 132.863 123.739  1.00  0.00    -0.274 OA
ATOM      2  N   UNL     1     125.249 134.664 124.747  1.00  0.00    -0.343 N 
ATOM      3  C   UNL     1     125.861 134.043 123.658  1.00  0.00     0.230 C 
ENDROOT
BRANCH   3   4
ATOM      4  C   UNL     1     126.104 134.773 122.324  1.00  0.00     0.116 C 
ATOM      5  C   UNL     1     126.369 133.791 121.166  1.00  0.00     0.102 C 
ATOM      6  C   UNL     1     127.133 135.868 122.433  1.00  0.00    -0.007 C 
ATOM      7  N   UNL     1     126.781 134.429 119.899  1.00  0.00    -0.298 NA
ATOM      8  C   UNL     1     128.006 136.087 121.434  1.00  0.00    -0.026 C 
ATOM      9  C   UNL     1     127.964 135.310 120.089  1.00  0.00     0.091 C 
ATOM     10  C   UNL     1     129.167 136.986 121.604  1.00  0.00    -0.011 A 
ATOM     11  C   UNL     1     129.295 134.512 119.826  1.00  0.00     0.061 C 
ATOM     12  C   UNL     1     130.306 136.543 120.911  1.00  0.00     0.010 A 
ATOM     13  C   UNL     1     129.280 138.146 122.371  1.00  0.00     0.009 A 
ATOM     14  C   UNL     1     130.467 135.412 120.072  1.00  0.00    -0.020 A 
ATOM     15  C   UNL     1     131.508 137.228 120.974  1.00  0.00     0.046 A 
ATOM     16  C   UNL     1     130.500 138.837 122.426  1.00  0.00     0.003 A 
ATOM     17  C   UNL     1     131.772 135.415 119.638  1.00  0.00     0.087 A 
ATOM     18  N   UNL     1     132.392 136.519 120.189  1.00  0.00    -0.361 N 
ATOM     19  C   UNL     1     131.640 138.394 121.732  1.00  0.00     0.027 A 
ATOM     20  C   UNL     1     125.669 135.167 119.292  1.00  0.00     0.106 C 
ATOM     21  H   UNL     1     133.357 136.777 120.037  1.00  0.00     0.166 HD
ENDBRANCH   3   4
BRANCH   2  22
ATOM     22  C   UNL     1     125.012 133.829 125.930  1.00  0.00     0.116 C 
ATOM     23  C   UNL     1     126.004 134.119 127.048  1.00  0.00     0.027 C 
ENDBRANCH   2  22
BRANCH   2  24
ATOM     24  C   UNL     1     124.610 135.988 124.745  1.00  0.00     0.116 C 
ATOM     25  C   UNL     1     123.145 135.941 125.160  1.00  0.00     0.027 C 
ENDBRANCH   2  24
TORSDOF 3
ENDMDL
MODEL 3
REMARK VINA RESULT:    -8.466      2.488      7.546
REMARK INTER + INTRA:         -10.369
REMARK INTER:                  -9.892
REMARK INTRA:                  -0.477
REMARK UNBOUND:                -0.418
REMARK SMILES CCN(CC)C(=O)[C@@H]1C=C2c3cccc4[nH]cc(c34)C[C@H]2N(C)C1
REMARK SMILES IDX 7 1 3 2 6 3 8 4 24 5 9 6 22 7 10 8 21 9 11 10 20 11 19 12
REMARK SMILES IDX 12 13 18 14 15 15 13 16 17 17 16 18 14 19 23 20 2 22 1 23
REMARK SMILES IDX 4 24 5 25
REMARK H PARENT 16 21
ROOT
ATOM      1  O   UNL     1     125.667 135.503 120.459  1.00  0.00    -0.274 OA
ATOM      2  N   UNL     1     127.936 135.217 120.479  1.00  0.00    -0.343 N 
ATOM      3  C   UNL     1     126.688 135.225 121.105  1.00  0.00     0.230 C 
ENDROOT
BRANCH   3   4
ATOM      4  C   UNL     1     126.515 134.896 122.599  1.00  0.00     0.116 C 
ATOM      5  C   UNL     1     125.427 133.832 122.835  1.00  0.00     0.102 C 
ATOM      6  C   UNL     1     126.353 136.125 123.455  1.00  0.00    -0.007 C 
ATOM      7  N   UNL     1     125.090 133.600 124.255  1.00  0.00    -0.298 NA
ATOM      8  C   UNL     1     125.504 136.124 124.498  1.00  0.00    -0.026 C 
ATOM      9  C   UNL     1     124.712 134.862 124.943  1.00  0.00     0.091 C 
ATOM     10  C   UNL     1     125.147 137.371 125.206  1.00  0.00    -0.011 A 
ATOM     11  C   UNL     1     123.156 135.086 124.873  1.00  0.00     0.061 C 
ATOM     12  C   UNL     1     123.812 137.388 125.644  1.00  0.00     0.010 A 
ATOM     13  C   UNL     1     125.927 138.503 125.447  1.00  0.00     0.009 A 
ATOM     14  C   UNL     1     122.815 136.388 125.530  1.00  0.00    -0.020 A 
ATOM     15  C   UNL     1     123.275 138.484 126.296  1.00  0.00     0.046 A 
ATOM     16  C   UNL     1     125.377 139.608 126.113  1.00  0.00     0.003 A 
ATOM     17  C   UNL     1     121.673 136.891 126.109  1.00  0.00     0.087 A 
ATOM     18  N   UNL     1     121.964 138.159 126.571  1.00  0.00    -0.361 N 
ATOM     19  C   UNL     1     124.040 139.625 126.550  1.00  0.00     0.027 A 
ATOM     20  C   UNL     1     126.189 132.928 124.956  1.00  0.00     0.106 C 
ATOM     21  H   UNL     1     121.310 138.766 127.047  1.00  0.00     0.166 HD
ENDBRANCH   3   4
BRANCH   2  22
ATOM     22  C   UNL     1     127.946 135.476 119.034  1.00  0.00     0.116 C 
ATOM     23  C   UNL     1     127.993 134.192 118.219  1.00  0.00     0.027 C 
ENDBRANCH   2  22
BRANCH   2  24
ATOM     24  C   UNL     1     129.199 134.748 121.067  1.00  0.00     0.116 C 
ATOM     25  C   UNL     1     130.380 135.648 120.728  1.00  0.00     0.027 C 
ENDBRANCH   2  24
TORSDOF 3
ENDMDL
MODEL 4
REMARK VINA RESULT:    -8.357      2.330      7.183
REMARK INTER + INTRA:         -10.241
REMARK INTER:                  -9.683
REMARK INTRA:                  -0.558
REMARK UNBOUND:                -0.418
REMARK SMILES CCN(CC)C(=O)[C@@H]1C=C2c3cccc4[nH]cc(c34)C[C@H]2N(C)C1
REMARK SMILES IDX 7 1 3 2 6 3 8 4 24 5 9 6 22 7 10 8 21 9 11 10 20 11 19 12
REMARK SMILES IDX 12 13 18 14 15 15 13 16 17 17 16 18 14 19 23 20 2 22 1 23
REMARK SMILES IDX 4 24 5 25
REMARK H PARENT 16 21
ROOT
ATOM      1  O   UNL     1     126.125 135.499 119.485  1.00  0.00    -0.274 OA
ATOM      2  N   UNL     1     128.360 135.957 119.650  1.00  0.00    -0.343 N 
ATOM      3  C   UNL     1     127.163 135.453 120.162  1.00  0.00     0.230 C 
ENDROOT
BRANCH   3   4
ATOM      4  C   UNL     1     127.068 134.827 121.565  1.00  0.00     0.116 C 
ATOM      5  C   UNL     1     126.101 133.628 121.600  1.00  0.00     0.102 C 
ATOM      6  C   UNL     1     126.807 135.844 122.645  1.00  0.00    -0.007 C 
ATOM      7  N   UNL     1     125.831 133.093 122.950  1.00  0.00    -0.298 NA
ATOM      8  C   UNL     1     125.993 135.553 123.676  1.00  0.00    -0.026 C 
ATOM      9  C   UNL     1     125.347 134.153 123.873  1.00  0.00     0.091 C 
ATOM     10  C   UNL     1     125.533 136.596 124.616  1.00  0.00    -0.011 A 
ATOM     11  C   UNL     1     123.775 134.222 123.863  1.00  0.00     0.061 C 
ATOM     12  C   UNL     1     124.217 136.388 125.061  1.00  0.00     0.010 A 
ATOM     13  C   UNL     1     126.201 137.736 125.065  1.00  0.00     0.009 A 
ATOM     14  C   UNL     1     123.323 135.329 124.763  1.00  0.00    -0.020 A 
ATOM     15  C   UNL     1     123.590 137.276 125.918  1.00  0.00     0.046 A 
ATOM     16  C   UNL     1     125.561 138.628 125.939  1.00  0.00     0.003 A 
ATOM     17  C   UNL     1     122.153 135.589 125.440  1.00  0.00     0.087 A 
ATOM     18  N   UNL     1     122.328 136.767 126.137  1.00  0.00    -0.361 N 
ATOM     19  C   UNL     1     124.243 138.420 126.383  1.00  0.00     0.027 A 
ATOM     20  C   UNL     1     127.012 132.419 123.497  1.00  0.00     0.106 C 
ATOM     21  H   UNL     1     121.630 137.199 126.728  1.00  0.00     0.166 HD
ENDBRANCH   3   4
BRANCH   2  22
ATOM     22  C   UNL     1     128.323 136.458 118.270  1.00  0.00     0.116 C 
ATOM     23  C   UNL     1     128.836 135.432 117.270  1.00  0.00     0.027 C 
ENDBRANCH   2  22
BRANCH   2  24
ATOM     24  C   UNL     1     129.690 135.822 120.259  1.00  0.00     0.116 C 
ATOM     25  C   UNL     1     130.108 137.055 121.050  1.00  0.00     0.027 C 
ENDBRANCH   2  24
TORSDOF 3
ENDMDL
MODEL 5
REMARK VINA RESULT:    -8.284      2.379      2.878
REMARK INTER + INTRA:         -10.155
REMARK INTER:                  -9.691
REMARK INTRA:                  -0.464
REMARK UNBOUND:                -0.418
REMARK SMILES CCN(CC)C(=O)[C@@H]1C=C2c3cccc4[nH]cc(c34)C[C@H]2N(C)C1
REMARK SMILES IDX 7 1 3 2 6 3 8 4 24 5 9 6 22 7 10 8 21 9 11 10 20 11 19 12
REMARK SMILES IDX 12 13 18 14 15 15 13 16 17 17 16 18 14 19 23 20 2 22 1 23
REMARK SMILES IDX 4 24 5 25
REMARK H PARENT 16 21
ROOT
ATOM      1  O   UNL     1     125.911 137.197 124.447  1.00  0.00    -0.274 OA
ATOM      2  N   UNL     1     123.904 136.182 124.858  1.00  0.00    -0.343 N 
ATOM      3  C   UNL     1     125.170 136.219 124.273  1.00  0.00     0.230 C 
ENDROOT
BRANCH   3   4
ATOM      4  C   UNL     1     125.705 135.072 123.396  1.00  0.00     0.116 C 
ATOM      5  C   UNL     1     126.964 134.421 123.999  1.00  0.00     0.102 C 
ATOM      6  C   UNL     1     125.861 135.462 121.949  1.00  0.00    -0.007 C 
ATOM      7  N   UNL     1     127.627 133.433 123.123  1.00  0.00    -0.298 NA
ATOM      8  C   UNL     1     126.903 135.012 121.229  1.00  0.00    -0.026 C 
ATOM      9  C   UNL     1     127.950 134.010 121.791  1.00  0.00     0.091 C 
ATOM     10  C   UNL     1     127.212 135.559 119.891  1.00  0.00    -0.011 A 
ATOM     11  C   UNL     1     129.404 134.611 121.787  1.00  0.00     0.061 C 
ATOM     12  C   UNL     1     128.593 135.630 119.636  1.00  0.00     0.010 A 
ATOM     13  C   UNL     1     126.342 136.032 118.909  1.00  0.00     0.009 A 
ATOM     14  C   UNL     1     129.680 135.227 120.450  1.00  0.00    -0.020 A 
ATOM     15  C   UNL     1     129.087 136.149 118.452  1.00  0.00     0.046 A 
ATOM     16  C   UNL     1     126.851 136.552 117.709  1.00  0.00     0.003 A 
ATOM     17  C   UNL     1     130.832 135.513 119.753  1.00  0.00     0.087 A 
ATOM     18  N   UNL     1     130.460 136.069 118.546  1.00  0.00    -0.361 N 
ATOM     19  C   UNL     1     128.233 136.624 117.455  1.00  0.00     0.027 A 
ATOM     20  C   UNL     1     126.816 132.220 122.986  1.00  0.00     0.106 C 
ATOM     21  H   UNL     1     131.102 136.373 117.826  1.00  0.00     0.166 HD
ENDBRANCH   3   4
BRANCH   2  22
ATOM     22  C   UNL     1     123.552 137.310 125.730  1.00  0.00     0.116 C 
ATOM     23  C   UNL     1     122.046 137.501 125.845  1.00  0.00     0.027 C 
ENDBRANCH   2  22
BRANCH   2  24
ATOM     24  C   UNL     1     122.990 135.031 124.879  1.00  0.00     0.116 C 
ATOM     25  C   UNL     1     123.310 134.040 125.991  1.00  0.00     0.027 C 
ENDBRANCH   2  24
TORSDOF 3
ENDMDL
MODEL 6
REMARK VINA RESULT:    -8.232      2.054      6.732
REMARK INTER + INTRA:         -10.094
REMARK INTER:                  -9.587
REMARK INTRA:                  -0.507
REMARK UNBOUND:                -0.418
REMARK SMILES CCN(CC)C(=O)[C@@H]1C=C2c3cccc4[nH]cc(c34)C[C@H]2N(C)C1
REMARK SMILES IDX 7 1 3 2 6 3 8 4 24 5 9 6 22 7 10 8 21 9 11 10 20 11 19 12
REMARK SMILES IDX 12 13 18 14 15 15 13 16 17 17 16 18 14 19 23 20 2 22 1 23
REMARK SMILES IDX 4 24 5 25
REMARK H PARENT 16 21
ROOT
ATOM      1  O   UNL     1     125.668 136.270 118.524  1.00  0.00    -0.274 OA
ATOM      2  N   UNL     1     127.905 135.827 118.356  1.00  0.00    -0.343 N 
ATOM      3  C   UNL     1     126.609 135.498 118.755  1.00  0.00     0.230 C 
ENDROOT
BRANCH   3   4
ATOM      4  C   UNL     1     126.283 134.184 119.490  1.00  0.00     0.116 C 
ATOM      5  C   UNL     1     125.126 133.418 118.821  1.00  0.00     0.102 C 
ATOM      6  C   UNL     1     126.105 134.370 120.974  1.00  0.00    -0.007 C 
ATOM      7  N   UNL     1     124.650 132.240 119.575  1.00  0.00    -0.298 NA
ATOM      8  C   UNL     1     125.165 133.678 121.642  1.00  0.00    -0.026 C 
ATOM      9  C   UNL     1     124.275 132.597 120.969  1.00  0.00     0.091 C 
ATOM     10  C   UNL     1     124.808 134.007 123.038  1.00  0.00    -0.011 A 
ATOM     11  C   UNL     1     122.745 132.954 121.056  1.00  0.00     0.061 C 
ATOM     12  C   UNL     1     123.441 133.827 123.308  1.00  0.00     0.010 A 
ATOM     13  C   UNL     1     125.619 134.493 124.064  1.00  0.00     0.009 A 
ATOM     14  C   UNL     1     122.410 133.355 122.459  1.00  0.00    -0.020 A 
ATOM     15  C   UNL     1     122.902 134.117 124.550  1.00  0.00     0.046 A 
ATOM     16  C   UNL     1     125.065 134.779 125.322  1.00  0.00     0.003 A 
ATOM     17  C   UNL     1     121.246 133.370 123.193  1.00  0.00     0.087 A 
ATOM     18  N   UNL     1     121.557 133.831 124.456  1.00  0.00    -0.361 N 
ATOM     19  C   UNL     1     123.697 134.600 125.592  1.00  0.00     0.027 A 
ATOM     20  C   UNL     1     125.645 131.164 119.558  1.00  0.00     0.106 C 
ATOM     21  H   UNL     1     120.894 133.941 125.211  1.00  0.00     0.166 HD
ENDBRANCH   3   4
BRANCH   2  22
ATOM     22  C   UNL     1     128.060 137.076 117.599  1.00  0.00     0.116 C 
ATOM     23  C   UNL     1     128.790 138.147 118.397  1.00  0.00     0.027 C 
ENDBRANCH   2  22
BRANCH   2  24
ATOM     24  C   UNL     1     129.081 134.947 118.409  1.00  0.00     0.116 C 
ATOM     25  C   UNL     1     129.765 134.954 119.770  1.00  0.00     0.027 C 
ENDBRANCH   2  24
TORSDOF 3
ENDMDL
MODEL 7
REMARK VINA RESULT:    -8.047      1.832      6.849
REMARK INTER + INTRA:          -9.876
REMARK INTER:                  -9.494
REMARK INTRA:                  -0.382
REMARK UNBOUND:                -0.418
REMARK SMILES CCN(CC)C(=O)[C@@H]1C=C2c3cccc4[nH]cc(c34)C[C@H]2N(C)C1
REMARK SMILES IDX 7 1 3 2 6 3 8 4 24 5 9 6 22 7 10 8 21 9 11 10 20 11 19 12
REMARK SMILES IDX 12 13 18 14 15 15 13 16 17 17 16 18 14 19 23 20 2 22 1 23
REMARK SMILES IDX 4 24 5 25
REMARK H PARENT 16 21
ROOT
ATOM      1  O   UNL     1     125.226 136.217 118.621  1.00  0.00    -0.274 OA
ATOM      2  N   UNL     1     127.476 135.881 118.391  1.00  0.00    -0.343 N 
ATOM      3  C   UNL     1     126.220 135.525 118.885  1.00  0.00     0.230 C 
ENDROOT
BRANCH   3   4
ATOM      4  C   UNL     1     126.004 134.280 119.764  1.00  0.00     0.116 C 
ATOM      5  C   UNL     1     124.639 133.616 119.504  1.00  0.00     0.102 C 
ATOM      6  C   UNL     1     126.282 134.536 121.222  1.00  0.00    -0.007 C 
ATOM      7  N   UNL     1     124.297 132.522 120.436  1.00  0.00    -0.298 NA
ATOM      8  C   UNL     1     125.517 133.970 122.173  1.00  0.00    -0.026 C 
ATOM      9  C   UNL     1     124.376 132.965 121.853  1.00  0.00     0.091 C 
ATOM     10  C   UNL     1     125.612 134.383 123.589  1.00  0.00    -0.011 A 
ATOM     11  C   UNL     1     122.976 133.484 122.350  1.00  0.00     0.061 C 
ATOM     12  C   UNL     1     124.372 134.358 124.249  1.00  0.00     0.010 A 
ATOM     13  C   UNL     1     126.726 134.817 124.309  1.00  0.00     0.009 A 
ATOM     14  C   UNL     1     123.100 133.968 123.761  1.00  0.00    -0.020 A 
ATOM     15  C   UNL     1     124.245 134.747 125.572  1.00  0.00     0.046 A 
ATOM     16  C   UNL     1     126.589 135.205 125.651  1.00  0.00     0.003 A 
ATOM     17  C   UNL     1     122.206 134.130 124.794  1.00  0.00     0.087 A 
ATOM     18  N   UNL     1     122.910 134.600 125.884  1.00  0.00    -0.361 N 
ATOM     19  C   UNL     1     125.348 135.180 126.311  1.00  0.00     0.027 A 
ATOM     20  C   UNL     1     125.143 131.347 120.205  1.00  0.00     0.106 C 
ATOM     21  H   UNL     1     122.507 134.807 126.788  1.00  0.00     0.166 HD
ENDBRANCH   3   4
BRANCH   2  22
ATOM     22  C   UNL     1     127.524 137.050 117.505  1.00  0.00     0.116 C 
ATOM     23  C   UNL     1     128.448 138.138 118.035  1.00  0.00     0.027 C 
ENDBRANCH   2  22
BRANCH   2  24
ATOM     24  C   UNL     1     128.703 135.076 118.478  1.00  0.00     0.116 C 
ATOM     25  C   UNL     1     128.640 133.808 117.637  1.00  0.00     0.027 C 
ENDBRANCH   2  24
TORSDOF 3
ENDMDL
MODEL 8
REMARK VINA RESULT:    -7.963      3.185      5.904
REMARK INTER + INTRA:          -9.778
REMARK INTER:                 -10.033
REMARK INTRA:                   0.255
REMARK UNBOUND:                -0.418
REMARK SMILES CCN(CC)C(=O)[C@@H]1C=C2c3cccc4[nH]cc(c34)C[C@H]2N(C)C1
REMARK SMILES IDX 7 1 3 2 6 3 8 4 24 5 9 6 22 7 10 8 21 9 11 10 20 11 19 12
REMARK SMILES IDX 12 13 18 14 15 15 13 16 17 17 16 18 14 19 23 20 2 22 1 23
REMARK SMILES IDX 4 24 5 25
REMARK H PARENT 16 21
ROOT
ATOM      1  O   UNL     1     123.200 138.918 124.808  1.00  0.00    -0.274 OA
ATOM      2  N   UNL     1     125.104 139.789 125.727  1.00  0.00    -0.343 N 
ATOM      3  C   UNL     1     124.303 138.715 125.335  1.00  0.00     0.230 C 
ENDROOT
BRANCH   3   4
ATOM      4  C   UNL     1     124.737 137.251 125.531  1.00  0.00     0.116 C 
ATOM      5  C   UNL     1     126.182 137.006 125.056  1.00  0.00     0.102 C 
ATOM      6  C   UNL     1     123.744 136.265 124.975  1.00  0.00    -0.007 C 
ATOM      7  N   UNL     1     126.598 135.589 125.054  1.00  0.00    -0.298 NA
ATOM      8  C   UNL     1     124.164 135.143 124.364  1.00  0.00    -0.026 C 
ATOM      9  C   UNL     1     125.662 134.743 124.267  1.00  0.00     0.091 C 
ATOM     10  C   UNL     1     123.233 134.280 123.606  1.00  0.00    -0.011 A 
ATOM     11  C   UNL     1     126.146 134.624 122.775  1.00  0.00     0.061 C 
ATOM     12  C   UNL     1     123.826 133.703 122.470  1.00  0.00     0.010 A 
ATOM     13  C   UNL     1     121.885 134.013 123.845  1.00  0.00     0.009 A 
ATOM     14  C   UNL     1     125.158 133.809 121.999  1.00  0.00    -0.020 A 
ATOM     15  C   UNL     1     123.108 132.892 121.609  1.00  0.00     0.046 A 
ATOM     16  C   UNL     1     121.165 133.186 122.969  1.00  0.00     0.003 A 
ATOM     17  C   UNL     1     125.236 133.063 120.845  1.00  0.00     0.087 A 
ATOM     18  N   UNL     1     123.991 132.512 120.620  1.00  0.00    -0.361 N 
ATOM     19  C   UNL     1     121.759 132.609 121.833  1.00  0.00     0.027 A 
ATOM     20  C   UNL     1     126.745 135.080 126.421  1.00  0.00     0.106 C 
ATOM     21  H   UNL     1     123.756 131.911 119.842  1.00  0.00     0.166 HD
ENDBRANCH   3   4
BRANCH   2  22
ATOM     22  C   UNL     1     124.600 141.132 125.413  1.00  0.00     0.116 C 
ATOM     23  C   UNL     1     124.072 141.853 126.645  1.00  0.00     0.027 C 
ENDBRANCH   2  22
BRANCH   2  24
ATOM     24  C   UNL     1     126.491 139.709 126.206  1.00  0.00     0.116 C 
ATOM     25  C   UNL     1     127.320 140.930 125.827  1.00  0.00     0.027 C 
ENDBRANCH   2  24
TORSDOF 3
ENDMDL
MODEL 9
REMARK VINA RESULT:    -7.635      2.102      7.259
REMARK INTER + INTRA:          -9.393
REMARK INTER:                  -9.512
REMARK INTRA:                   0.120
REMARK UNBOUND:                -0.418
REMARK SMILES CCN(CC)C(=O)[C@@H]1C=C2c3cccc4[nH]cc(c34)C[C@H]2N(C)C1
REMARK SMILES IDX 7 1 3 2 6 3 8 4 24 5 9 6 22 7 10 8 21 9 11 10 20 11 19 12
REMARK SMILES IDX 12 13 18 14 15 15 13 16 17 17 16 18 14 19 23 20 2 22 1 23
REMARK SMILES IDX 4 24 5 25
REMARK H PARENT 16 21
ROOT
ATOM      1  O   UNL     1     128.497 134.382 121.777  1.00  0.00    -0.274 OA
ATOM      2  N   UNL     1     126.344 134.129 121.049  1.00  0.00    -0.343 N 
ATOM      3  C   UNL     1     127.299 134.238 122.061  1.00  0.00     0.230 C 
ENDROOT
BRANCH   3   4
ATOM      4  C   UNL     1     126.926 134.188 123.554  1.00  0.00     0.116 C 
ATOM      5  C   UNL     1     125.764 133.214 123.828  1.00  0.00     0.102 C 
ATOM      6  C   UNL     1     126.721 135.555 124.154  1.00  0.00    -0.007 C 
ATOM      7  N   UNL     1     125.242 133.250 125.209  1.00  0.00    -0.298 NA
ATOM      8  C   UNL     1     125.750 135.765 125.060  1.00  0.00    -0.026 C 
ATOM      9  C   UNL     1     124.847 134.626 125.610  1.00  0.00     0.091 C 
ATOM     10  C   UNL     1     125.372 137.128 125.487  1.00  0.00    -0.011 A 
ATOM     11  C   UNL     1     123.324 134.877 125.299  1.00  0.00     0.061 C 
ATOM     12  C   UNL     1     123.995 137.261 125.736  1.00  0.00     0.010 A 
ATOM     13  C   UNL     1     126.172 138.263 125.627  1.00  0.00     0.009 A 
ATOM     14  C   UNL     1     122.970 136.284 125.668  1.00  0.00    -0.020 A 
ATOM     15  C   UNL     1     123.438 138.471 126.110  1.00  0.00     0.046 A 
ATOM     16  C   UNL     1     125.600 139.485 126.012  1.00  0.00     0.003 A 
ATOM     17  C   UNL     1     121.792 136.915 125.996  1.00  0.00     0.087 A 
ATOM     18  N   UNL     1     122.088 138.236 126.263  1.00  0.00    -0.361 N 
ATOM     19  C   UNL     1     124.222 139.617 126.260  1.00  0.00     0.027 A 
ATOM     20  C   UNL     1     126.210 132.685 126.154  1.00  0.00     0.106 C 
ATOM     21  H   UNL     1     121.412 138.937 126.536  1.00  0.00     0.166 HD
ENDBRANCH   3   4
BRANCH   2  22
ATOM     22  C   UNL     1     126.830 134.268 119.671  1.00  0.00     0.116 C 
ATOM     23  C   UNL     1     126.344 135.553 119.015  1.00  0.00     0.027 C 
ENDBRANCH   2  22
BRANCH   2  24
ATOM     24  C   UNL     1     124.885 134.124 121.229  1.00  0.00     0.116 C 
ATOM     25  C   UNL     1     124.194 133.022 120.437  1.00  0.00     0.027 C 
ENDBRANCH   2  24
TORSDOF 3
ENDMDL
MODEL 10
REMARK VINA RESULT:    -7.534      2.245      3.990
REMARK INTER + INTRA:          -9.274
REMARK INTER:                  -9.114
REMARK INTRA:                  -0.160
REMARK UNBOUND:                -0.418
REMARK SMILES CCN(CC)C(=O)[C@@H]1C=C2c3cccc4[nH]cc(c34)C[C@H]2N(C)C1
REMARK SMILES IDX 7 1 3 2 6 3 8 4 24 5 9 6 22 7 10 8 21 9 11 10 20 11 19 12
REMARK SMILES IDX 12 13 18 14 15 15 13 16 17 17 16 18 14 19 23 20 2 22 1 23
REMARK SMILES IDX 4 24 5 25
REMARK H PARENT 16 21
ROOT
ATOM      1  O   UNL     1     123.952 137.403 124.850  1.00  0.00    -0.274 OA
ATOM      2  N   UNL     1     122.191 136.436 125.943  1.00  0.00    -0.343 N 
ATOM      3  C   UNL     1     123.419 136.371 125.283  1.00  0.00     0.230 C 
ENDROOT
BRANCH   3   4
ATOM      4  C   UNL     1     124.164 135.042 125.061  1.00  0.00     0.116 C 
ATOM      5  C   UNL     1     125.665 135.158 125.388  1.00  0.00     0.102 C 
ATOM      6  C   UNL     1     123.886 134.431 123.712  1.00  0.00    -0.007 C 
ATOM      7  N   UNL     1     126.467 133.970 125.029  1.00  0.00    -0.298 NA
ATOM      8  C   UNL     1     124.863 133.810 123.028  1.00  0.00    -0.026 C 
ATOM      9  C   UNL     1     126.293 133.601 123.600  1.00  0.00     0.091 C 
ATOM     10  C   UNL     1     124.686 133.413 121.616  1.00  0.00    -0.011 A 
ATOM     11  C   UNL     1     127.391 134.296 122.712  1.00  0.00     0.061 C 
ATOM     12  C   UNL     1     125.865 133.538 120.862  1.00  0.00     0.010 A 
ATOM     13  C   UNL     1     123.532 132.987 120.957  1.00  0.00     0.009 A 
ATOM     14  C   UNL     1     127.159 133.945 121.275  1.00  0.00    -0.020 A 
ATOM     15  C   UNL     1     125.897 133.250 119.509  1.00  0.00     0.046 A 
ATOM     16  C   UNL     1     123.574 132.692 119.586  1.00  0.00     0.003 A 
ATOM     17  C   UNL     1     127.966 133.907 120.161  1.00  0.00     0.087 A 
ATOM     18  N   UNL     1     127.192 133.484 119.100  1.00  0.00    -0.361 N 
ATOM     19  C   UNL     1     124.754 132.818 118.832  1.00  0.00     0.027 A 
ATOM     20  C   UNL     1     126.154 132.837 125.906  1.00  0.00     0.106 C 
ATOM     21  H   UNL     1     127.526 133.359 118.154  1.00  0.00     0.166 HD
ENDBRANCH   3   4
BRANCH   2  22
ATOM     22  C   UNL     1     121.629 137.776 126.151  1.00  0.00     0.116 C 
ATOM     23  C   UNL     1     122.437 138.592 127.150  1.00  0.00     0.027 C 
ENDBRANCH   2  22
BRANCH   2  24
ATOM     24  C   UNL     1     121.526 135.333 126.651  1.00  0.00     0.116 C 
ATOM     25  C   UNL     1     122.061 135.127 128.062  1.00  0.00     0.027 C 
ENDBRANCH   2  24
TORSDOF 3
ENDMDL
MODEL 11
REMARK VINA RESULT:    -7.241      3.490      5.314
REMARK INTER + INTRA:          -8.929
REMARK INTER:                  -8.576
REMARK INTRA:                  -0.353
REMARK UNBOUND:                -0.418
REMARK SMILES CCN(CC)C(=O)[C@@H]1C=C2c3cccc4[nH]cc(c34)C[C@H]2N(C)C1
REMARK SMILES IDX 7 1 3 2 6 3 8 4 24 5 9 6 22 7 10 8 21 9 11 10 20 11 19 12
REMARK SMILES IDX 12 13 18 14 15 15 13 16 17 17 16 18 14 19 23 20 2 22 1 23
REMARK SMILES IDX 4 24 5 25
REMARK H PARENT 16 21
ROOT
ATOM      1  O   UNL     1     126.097 133.761 122.038  1.00  0.00    -0.274 OA
ATOM      2  N   UNL     1     124.402 133.431 120.539  1.00  0.00    -0.343 N 
ATOM      3  C   UNL     1     125.599 134.028 120.935  1.00  0.00     0.230 C 
ENDROOT
BRANCH   3   4
ATOM      4  C   UNL     1     126.352 135.031 120.041  1.00  0.00     0.116 C 
ATOM      5  C   UNL     1     127.074 134.336 118.871  1.00  0.00     0.102 C 
ATOM      6  C   UNL     1     127.237 135.966 120.825  1.00  0.00    -0.007 C 
ATOM      7  N   UNL     1     127.957 135.218 118.080  1.00  0.00    -0.298 NA
ATOM      8  C   UNL     1     128.436 136.337 120.343  1.00  0.00    -0.026 C 
ATOM      9  C   UNL     1     128.951 135.912 118.939  1.00  0.00     0.091 C 
ATOM     10  C   UNL     1     129.419 137.055 121.182  1.00  0.00    -0.011 A 
ATOM     11  C   UNL     1     130.284 135.080 119.026  1.00  0.00     0.061 C 
ATOM     12  C   UNL     1     130.746 136.687 120.905  1.00  0.00     0.010 A 
ATOM     13  C   UNL     1     129.198 137.981 122.202  1.00  0.00     0.009 A 
ATOM     14  C   UNL     1     131.245 135.780 119.937  1.00  0.00    -0.020 A 
ATOM     15  C   UNL     1     131.811 137.220 121.610  1.00  0.00     0.046 A 
ATOM     16  C   UNL     1     130.283 138.521 122.909  1.00  0.00     0.003 A 
ATOM     17  C   UNL     1     132.614 135.765 120.068  1.00  0.00     0.087 A 
ATOM     18  N   UNL     1     132.945 136.641 121.082  1.00  0.00    -0.361 N 
ATOM     19  C   UNL     1     131.611 138.152 122.631  1.00  0.00     0.027 A 
ATOM     20  C   UNL     1     127.177 136.181 117.296  1.00  0.00     0.106 C 
ATOM     21  H   UNL     1     133.886 136.836 121.395  1.00  0.00     0.166 HD
ENDBRANCH   3   4
BRANCH   2  22
ATOM     22  C   UNL     1     123.830 132.438 121.457  1.00  0.00     0.116 C 
ATOM     23  C   UNL     1     122.364 132.711 121.761  1.00  0.00     0.027 C 
ENDBRANCH   2  22
BRANCH   2  24
ATOM     24  C   UNL     1     123.785 133.519 119.207  1.00  0.00     0.116 C 
ATOM     25  C   UNL     1     123.942 132.240 118.396  1.00  0.00     0.027 C 
ENDBRANCH   2  24
TORSDOF 3
ENDMDL
MODEL 12
REMARK VINA RESULT:    -7.132      2.154      7.452
REMARK INTER + INTRA:          -8.801
REMARK INTER:                  -8.423
REMARK INTRA:                  -0.378
REMARK UNBOUND:                -0.418
REMARK SMILES CCN(CC)C(=O)[C@@H]1C=C2c3cccc4[nH]cc(c34)C[C@H]2N(C)C1
REMARK SMILES IDX 7 1 3 2 6 3 8 4 24 5 9 6 22 7 10 8 21 9 11 10 20 11 19 12
REMARK SMILES IDX 12 13 18 14 15 15 13 16 17 17 16 18 14 19 23 20 2 22 1 23
REMARK SMILES IDX 4 24 5 25
REMARK H PARENT 16 21
ROOT
ATOM      1  O   UNL     1     125.188 131.645 120.667  1.00  0.00    -0.274 OA
ATOM      2  N   UNL     1     126.309 132.267 118.773  1.00  0.00    -0.343 N 
ATOM      3  C   UNL     1     125.844 132.508 120.067  1.00  0.00     0.230 C 
ENDROOT
BRANCH   3   4
ATOM      4  C   UNL     1     126.113 133.833 120.804  1.00  0.00     0.116 C 
ATOM      5  C   UNL     1     127.546 133.902 121.365  1.00  0.00     0.102 C 
ATOM      6  C   UNL     1     125.051 134.167 121.819  1.00  0.00    -0.007 C 
ATOM      7  N   UNL     1     127.813 135.069 122.232  1.00  0.00    -0.298 NA
ATOM      8  C   UNL     1     125.382 134.734 122.993  1.00  0.00    -0.026 C 
ATOM      9  C   UNL     1     126.834 135.159 123.347  1.00  0.00     0.091 C 
ATOM     10  C   UNL     1     124.405 134.855 124.095  1.00  0.00    -0.011 A 
ATOM     11  C   UNL     1     127.375 134.410 124.620  1.00  0.00     0.061 C 
ATOM     12  C   UNL     1     124.990 134.695 125.363  1.00  0.00     0.010 A 
ATOM     13  C   UNL     1     123.026 135.059 124.034  1.00  0.00     0.009 A 
ATOM     14  C   UNL     1     126.347 134.477 125.707  1.00  0.00    -0.020 A 
ATOM     15  C   UNL     1     124.235 134.737 126.522  1.00  0.00     0.046 A 
ATOM     16  C   UNL     1     122.268 135.106 125.214  1.00  0.00     0.003 A 
ATOM     17  C   UNL     1     126.404 134.381 127.078  1.00  0.00     0.087 A 
ATOM     18  N   UNL     1     125.121 134.541 127.560  1.00  0.00    -0.361 N 
ATOM     19  C   UNL     1     122.854 134.944 126.482  1.00  0.00     0.027 A 
ATOM     20  C   UNL     1     127.839 136.310 121.453  1.00  0.00     0.106 C 
ATOM     21  H   UNL     1     124.862 134.522 128.537  1.00  0.00     0.166 HD
ENDBRANCH   3   4
BRANCH   2  22
ATOM     22  C   UNL     1     126.043 130.934 118.220  1.00  0.00     0.116 C 
ATOM     23  C   UNL     1     125.130 130.986 117.003  1.00  0.00     0.027 C 
ENDBRANCH   2  22
BRANCH   2  24
ATOM     24  C   UNL     1     127.231 133.119 118.008  1.00  0.00     0.116 C 
ATOM     25  C   UNL     1     128.540 132.419 117.669  1.00  0.00     0.027 C 
ENDBRANCH   2  24
TORSDOF 3
ENDMDL
MODEL 13
REMARK VINA RESULT:    -7.056      2.085      3.327
REMARK INTER + INTRA:          -8.711
REMARK INTER:                  -8.537
REMARK INTRA:                  -0.174
REMARK UNBOUND:                -0.418
REMARK SMILES CCN(CC)C(=O)[C@@H]1C=C2c3cccc4[nH]cc(c34)C[C@H]2N(C)C1
REMARK SMILES IDX 7 1 3 2 6 3 8 4 24 5 9 6 22 7 10 8 21 9 11 10 20 11 19 12
REMARK SMILES IDX 12 13 18 14 15 15 13 16 17 17 16 18 14 19 23 20 2 22 1 23
REMARK SMILES IDX 4 24 5 25
REMARK H PARENT 16 21
ROOT
ATOM      1  O   UNL     1     122.581 132.958 120.978  1.00  0.00    -0.274 OA
ATOM      2  N   UNL     1     124.353 133.724 122.204  1.00  0.00    -0.343 N 
ATOM      3  C   UNL     1     123.787 133.238 121.024  1.00  0.00     0.230 C 
ENDROOT
BRANCH   3   4
ATOM      4  C   UNL     1     124.613 133.027 119.743  1.00  0.00     0.116 C 
ATOM      5  C   UNL     1     125.653 131.902 119.902  1.00  0.00     0.102 C 
ATOM      6  C   UNL     1     125.190 134.308 119.198  1.00  0.00    -0.007 C 
ATOM      7  N   UNL     1     126.595 131.767 118.771  1.00  0.00    -0.298 NA
ATOM      8  C   UNL     1     126.422 134.329 118.659  1.00  0.00    -0.026 C 
ATOM      9  C   UNL     1     127.286 133.050 118.478  1.00  0.00     0.091 C 
ATOM     10  C   UNL     1     127.104 135.599 118.335  1.00  0.00    -0.011 A 
ATOM     11  C   UNL     1     128.645 133.139 119.267  1.00  0.00     0.061 C 
ATOM     12  C   UNL     1     128.491 135.545 118.553  1.00  0.00     0.010 A 
ATOM     13  C   UNL     1     126.558 136.807 117.900  1.00  0.00     0.009 A 
ATOM     14  C   UNL     1     129.292 134.460 118.990  1.00  0.00    -0.020 A 
ATOM     15  C   UNL     1     129.303 136.646 118.344  1.00  0.00     0.046 A 
ATOM     16  C   UNL     1     127.389 137.918 117.686  1.00  0.00     0.003 A 
ATOM     17  C   UNL     1     130.588 134.917 119.049  1.00  0.00     0.087 A 
ATOM     18  N   UNL     1     130.583 136.239 118.655  1.00  0.00    -0.361 N 
ATOM     19  C   UNL     1     128.777 137.863 117.904  1.00  0.00     0.027 A 
ATOM     20  C   UNL     1     125.917 131.251 117.579  1.00  0.00     0.106 C 
ATOM     21  H   UNL     1     131.401 136.830 118.598  1.00  0.00     0.166 HD
ENDBRANCH   3   4
BRANCH   2  22
ATOM     22  C   UNL     1     123.434 133.947 123.327  1.00  0.00     0.116 C 
ATOM     23  C   UNL     1     123.961 134.988 124.305  1.00  0.00     0.027 C 
ENDBRANCH   2  22
BRANCH   2  24
ATOM     24  C   UNL     1     125.715 134.252 122.361  1.00  0.00     0.116 C 
ATOM     25  C   UNL     1     126.697 133.212 122.884  1.00  0.00     0.027 C 
ENDBRANCH   2  24
TORSDOF 3
ENDMDL
MODEL 14
REMARK VINA RESULT:    -7.014      3.539      5.982
REMARK INTER + INTRA:          -8.662
REMARK INTER:                  -8.532
REMARK INTRA:                  -0.131
REMARK UNBOUND:                -0.418
REMARK SMILES CCN(CC)C(=O)[C@@H]1C=C2c3cccc4[nH]cc(c34)C[C@H]2N(C)C1
REMARK SMILES IDX 7 1 3 2 6 3 8 4 24 5 9 6 22 7 10 8 21 9 11 10 20 11 19 12
REMARK SMILES IDX 12 13 18 14 15 15 13 16 17 17 16 18 14 19 23 20 2 22 1 23
REMARK SMILES IDX 4 24 5 25
REMARK H PARENT 16 21
ROOT
ATOM      1  O   UNL     1     132.099 136.085 118.137  1.00  0.00    -0.274 OA
ATOM      2  N   UNL     1     131.194 136.277 120.228  1.00  0.00    -0.343 N 
ATOM      3  C   UNL     1     131.085 136.207 118.839  1.00  0.00     0.230 C 
ENDROOT
BRANCH   3   4
ATOM      4  C   UNL     1     129.727 136.275 118.116  1.00  0.00     0.116 C 
ATOM      5  C   UNL     1     128.782 137.311 118.755  1.00  0.00     0.102 C 
ATOM      6  C   UNL     1     129.096 134.921 117.923  1.00  0.00    -0.007 C 
ATOM      7  N   UNL     1     127.405 137.301 118.221  1.00  0.00    -0.298 NA
ATOM      8  C   UNL     1     127.766 134.763 118.048  1.00  0.00    -0.026 C 
ATOM      9  C   UNL     1     126.794 135.948 118.303  1.00  0.00     0.091 C 
ATOM     10  C   UNL     1     127.148 133.421 118.099  1.00  0.00    -0.011 A 
ATOM     11  C   UNL     1     126.001 135.781 119.652  1.00  0.00     0.061 C 
ATOM     12  C   UNL     1     126.039 133.364 118.961  1.00  0.00     0.010 A 
ATOM     13  C   UNL     1     127.538 132.245 117.459  1.00  0.00     0.009 A 
ATOM     14  C   UNL     1     125.440 134.395 119.727  1.00  0.00    -0.020 A 
ATOM     15  C   UNL     1     125.346 132.186 119.175  1.00  0.00     0.046 A 
ATOM     16  C   UNL     1     126.827 131.055 117.677  1.00  0.00     0.003 A 
ATOM     17  C   UNL     1     124.387 133.829 120.408  1.00  0.00     0.087 A 
ATOM     18  N   UNL     1     124.339 132.493 120.065  1.00  0.00    -0.361 N 
ATOM     19  C   UNL     1     125.718 130.998 118.540  1.00  0.00     0.027 A 
ATOM     20  C   UNL     1     127.368 137.811 116.847  1.00  0.00     0.106 C 
ATOM     21  H   UNL     1     123.660 131.830 120.414  1.00  0.00     0.166 HD
ENDBRANCH   3   4
BRANCH   2  22
ATOM     22  C   UNL     1     132.543 136.125 120.788  1.00  0.00     0.116 C 
ATOM     23  C   UNL     1     132.629 136.616 122.226  1.00  0.00     0.027 C 
ENDBRANCH   2  22
BRANCH   2  24
ATOM     24  C   UNL     1     130.082 136.253 121.190  1.00  0.00     0.116 C 
ATOM     25  C   UNL     1     129.494 134.861 121.380  1.00  0.00     0.027 C 
ENDBRANCH   2  24
TORSDOF 3
ENDMDL
MODEL 15
REMARK VINA RESULT:    -6.881      5.083      8.809
REMARK INTER + INTRA:          -8.506
REMARK INTER:                  -8.129
REMARK INTRA:                  -0.377
REMARK UNBOUND:                -0.418
REMARK SMILES CCN(CC)C(=O)[C@@H]1C=C2c3cccc4[nH]cc(c34)C[C@H]2N(C)C1
REMARK SMILES IDX 7 1 3 2 6 3 8 4 24 5 9 6 22 7 10 8 21 9 11 10 20 11 19 12
REMARK SMILES IDX 12 13 18 14 15 15 13 16 17 17 16 18 14 19 23 20 2 22 1 23
REMARK SMILES IDX 4 24 5 25
REMARK H PARENT 16 21
ROOT
ATOM      1  O   UNL     1     127.312 137.370 123.728  1.00  0.00    -0.274 OA
ATOM      2  N   UNL     1     126.415 135.385 124.423  1.00  0.00    -0.343 N 
ATOM      3  C   UNL     1     126.506 136.777 124.459  1.00  0.00     0.230 C 
ENDROOT
BRANCH   3   4
ATOM      4  C   UNL     1     125.628 137.635 125.389  1.00  0.00     0.116 C 
ATOM      5  C   UNL     1     124.275 137.991 124.743  1.00  0.00     0.102 C 
ATOM      6  C   UNL     1     126.359 138.826 125.952  1.00  0.00    -0.007 C 
ATOM      7  N   UNL     1     123.461 138.955 125.510  1.00  0.00    -0.298 NA
ATOM      8  C   UNL     1     125.730 140.005 126.105  1.00  0.00    -0.026 C 
ATOM      9  C   UNL     1     124.217 140.201 125.804  1.00  0.00     0.091 C 
ATOM     10  C   UNL     1     126.472 141.241 126.428  1.00  0.00    -0.011 A 
ATOM     11  C   UNL     1     123.973 141.275 124.681  1.00  0.00     0.061 C 
ATOM     12  C   UNL     1     125.929 142.381 125.810  1.00  0.00     0.010 A 
ATOM     13  C   UNL     1     127.620 141.404 127.204  1.00  0.00     0.009 A 
ATOM     14  C   UNL     1     124.786 142.497 124.980  1.00  0.00    -0.020 A 
ATOM     15  C   UNL     1     126.503 143.631 125.959  1.00  0.00     0.046 A 
ATOM     16  C   UNL     1     128.193 142.676 127.354  1.00  0.00     0.003 A 
ATOM     17  C   UNL     1     124.680 143.821 124.624  1.00  0.00     0.087 A 
ATOM     18  N   UNL     1     125.723 144.498 125.223  1.00  0.00    -0.361 N 
ATOM     19  C   UNL     1     127.650 143.816 126.734  1.00  0.00     0.027 A 
ATOM     20  C   UNL     1     122.946 138.350 126.742  1.00  0.00     0.106 C 
ATOM     21  H   UNL     1     125.893 145.491 125.140  1.00  0.00     0.166 HD
ENDBRANCH   3   4
BRANCH   2  22
ATOM     22  C   UNL     1     127.258 134.699 123.437  1.00  0.00     0.116 C 
ATOM     23  C   UNL     1     126.861 133.240 123.255  1.00  0.00     0.027 C 
ENDBRANCH   2  22
BRANCH   2  24
ATOM     24  C   UNL     1     125.401 134.563 125.100  1.00  0.00     0.116 C 
ATOM     25  C   UNL     1     125.738 134.290 126.560  1.00  0.00     0.027 C 
ENDBRANCH   2  24
TORSDOF 3
ENDMDL
MODEL 16
REMARK VINA RESULT:    -6.789      3.105      5.334
REMARK INTER + INTRA:          -8.398
REMARK INTER:                  -8.654
REMARK INTRA:                   0.257
REMARK UNBOUND:                -0.418
REMARK SMILES CCN(CC)C(=O)[C@@H]1C=C2c3cccc4[nH]cc(c34)C[C@H]2N(C)C1
REMARK SMILES IDX 7 1 3 2 6 3 8 4 24 5 9 6 22 7 10 8 21 9 11 10 20 11 19 12
REMARK SMILES IDX 12 13 18 14 15 15 13 16 17 17 16 18 14 19 23 20 2 22 1 23
REMARK SMILES IDX 4 24 5 25
REMARK H PARENT 16 21
ROOT
ATOM      1  O   UNL     1     123.669 132.440 121.452  1.00  0.00    -0.274 OA
ATOM      2  N   UNL     1     124.631 133.632 119.754  1.00  0.00    -0.343 N 
ATOM      3  C   UNL     1     124.618 133.133 121.057  1.00  0.00     0.230 C 
ENDROOT
BRANCH   3   4
ATOM      4  C   UNL     1     125.757 133.410 122.055  1.00  0.00     0.116 C 
ATOM      5  C   UNL     1     125.373 134.486 123.089  1.00  0.00     0.102 C 
ATOM      6  C   UNL     1     127.079 133.668 121.380  1.00  0.00    -0.007 C 
ATOM      7  N   UNL     1     126.480 134.923 123.964  1.00  0.00    -0.298 NA
ATOM      8  C   UNL     1     127.926 134.593 121.866  1.00  0.00    -0.026 C 
ATOM      9  C   UNL     1     127.653 135.383 123.176  1.00  0.00     0.091 C 
ATOM     10  C   UNL     1     129.111 135.033 121.102  1.00  0.00    -0.011 A 
ATOM     11  C   UNL     1     127.576 136.935 122.925  1.00  0.00     0.061 C 
ATOM     12  C   UNL     1     129.398 136.398 121.277  1.00  0.00     0.010 A 
ATOM     13  C   UNL     1     129.922 134.303 120.232  1.00  0.00     0.009 A 
ATOM     14  C   UNL     1     128.744 137.358 122.088  1.00  0.00    -0.020 A 
ATOM     15  C   UNL     1     130.448 137.011 120.616  1.00  0.00     0.046 A 
ATOM     16  C   UNL     1     130.988 134.930 119.569  1.00  0.00     0.003 A 
ATOM     17  C   UNL     1     129.401 138.553 121.906  1.00  0.00     0.087 A 
ATOM     18  N   UNL     1     130.431 138.330 121.015  1.00  0.00    -0.361 N 
ATOM     19  C   UNL     1     131.274 136.296 119.744  1.00  0.00     0.027 A 
ATOM     20  C   UNL     1     126.860 133.864 124.904  1.00  0.00     0.106 C 
ATOM     21  H   UNL     1     131.086 139.033 120.699  1.00  0.00     0.166 HD
ENDBRANCH   3   4
BRANCH   2  22
ATOM     22  C   UNL     1     123.517 133.229 118.887  1.00  0.00     0.116 C 
ATOM     23  C   UNL     1     123.809 131.936 118.138  1.00  0.00     0.027 C 
ENDBRANCH   2  22
BRANCH   2  24
ATOM     24  C   UNL     1     125.753 134.319 119.098  1.00  0.00     0.116 C 
ATOM     25  C   UNL     1     125.469 135.790 118.825  1.00  0.00     0.027 C 
ENDBRANCH   2  24
TORSDOF 3
ENDMDL
MODEL 17
REMARK VINA RESULT:    -6.779      2.940      7.366
REMARK INTER + INTRA:          -8.386
REMARK INTER:                  -8.534
REMARK INTRA:                   0.148
REMARK UNBOUND:                -0.418
REMARK SMILES CCN(CC)C(=O)[C@@H]1C=C2c3cccc4[nH]cc(c34)C[C@H]2N(C)C1
REMARK SMILES IDX 7 1 3 2 6 3 8 4 24 5 9 6 22 7 10 8 21 9 11 10 20 11 19 12
REMARK SMILES IDX 12 13 18 14 15 15 13 16 17 17 16 18 14 19 23 20 2 22 1 23
REMARK SMILES IDX 4 24 5 25
REMARK H PARENT 16 21
ROOT
ATOM      1  O   UNL     1     125.771 135.191 119.918  1.00  0.00    -0.274 OA
ATOM      2  N   UNL     1     124.362 133.441 120.347  1.00  0.00    -0.343 N 
ATOM      3  C   UNL     1     125.317 134.381 120.739  1.00  0.00     0.230 C 
ENDROOT
BRANCH   3   4
ATOM      4  C   UNL     1     125.849 134.461 122.181  1.00  0.00     0.116 C 
ATOM      5  C   UNL     1     125.761 133.104 122.907  1.00  0.00     0.102 C 
ATOM      6  C   UNL     1     125.254 135.603 122.964  1.00  0.00    -0.007 C 
ATOM      7  N   UNL     1     126.091 133.153 124.346  1.00  0.00    -0.298 NA
ATOM      8  C   UNL     1     124.951 135.455 124.266  1.00  0.00    -0.026 C 
ATOM      9  C   UNL     1     125.265 134.159 125.065  1.00  0.00     0.091 C 
ATOM     10  C   UNL     1     124.157 136.465 124.994  1.00  0.00    -0.011 A 
ATOM     11  C   UNL     1     123.963 133.493 125.645  1.00  0.00     0.061 C 
ATOM     12  C   UNL     1     123.298 135.899 125.951  1.00  0.00     0.010 A 
ATOM     13  C   UNL     1     124.124 137.850 124.828  1.00  0.00     0.009 A 
ATOM     14  C   UNL     1     123.130 134.540 126.318  1.00  0.00    -0.020 A 
ATOM     15  C   UNL     1     122.443 136.677 126.713  1.00  0.00     0.046 A 
ATOM     16  C   UNL     1     123.259 138.633 125.607  1.00  0.00     0.003 A 
ATOM     17  C   UNL     1     122.165 134.504 127.298  1.00  0.00     0.087 A 
ATOM     18  N   UNL     1     121.759 135.802 127.530  1.00  0.00    -0.361 N 
ATOM     19  C   UNL     1     122.399 138.065 126.564  1.00  0.00     0.027 A 
ATOM     20  C   UNL     1     127.520 133.403 124.553  1.00  0.00     0.106 C 
ATOM     21  H   UNL     1     121.059 136.078 128.205  1.00  0.00     0.166 HD
ENDBRANCH   3   4
BRANCH   2  22
ATOM     22  C   UNL     1     123.890 133.526 118.960  1.00  0.00     0.116 C 
ATOM     23  C   UNL     1     123.845 132.164 118.282  1.00  0.00     0.027 C 
ENDBRANCH   2  22
BRANCH   2  24
ATOM     24  C   UNL     1     123.617 132.538 121.236  1.00  0.00     0.116 C 
ATOM     25  C   UNL     1     122.243 133.077 121.611  1.00  0.00     0.027 C 
ENDBRANCH   2  24
TORSDOF 3
ENDMDL
MODEL 18
REMARK VINA RESULT:    -6.669      1.525      1.956
REMARK INTER + INTRA:          -8.256
REMARK INTER:                  -8.369
REMARK INTRA:                   0.113
REMARK UNBOUND:                -0.418
REMARK SMILES CCN(CC)C(=O)[C@@H]1C=C2c3cccc4[nH]cc(c34)C[C@H]2N(C)C1
REMARK SMILES IDX 7 1 3 2 6 3 8 4 24 5 9 6 22 7 10 8 21 9 11 10 20 11 19 12
REMARK SMILES IDX 12 13 18 14 15 15 13 16 17 17 16 18 14 19 23 20 2 22 1 23
REMARK SMILES IDX 4 24 5 25
REMARK H PARENT 16 21
ROOT
ATOM      1  O   UNL     1     124.289 133.279 125.571  1.00  0.00    -0.274 OA
ATOM      2  N   UNL     1     125.102 135.395 125.276  1.00  0.00    -0.343 N 
ATOM      3  C   UNL     1     124.402 134.271 124.837  1.00  0.00     0.230 C 
ENDROOT
BRANCH   3   4
ATOM      4  C   UNL     1     123.745 134.202 123.446  1.00  0.00     0.116 C 
ATOM      5  C   UNL     1     123.137 132.816 123.160  1.00  0.00     0.102 C 
ATOM      6  C   UNL     1     124.645 134.704 122.347  1.00  0.00    -0.007 C 
ATOM      7  N   UNL     1     122.648 132.630 121.779  1.00  0.00    -0.298 NA
ATOM      8  C   UNL     1     124.658 134.101 121.145  1.00  0.00    -0.026 C 
ATOM      9  C   UNL     1     123.706 132.929 120.778  1.00  0.00     0.091 C 
ATOM     10  C   UNL     1     125.688 134.415 120.133  1.00  0.00    -0.011 A 
ATOM     11  C   UNL     1     124.497 131.621 120.402  1.00  0.00     0.061 C 
ATOM     12  C   UNL     1     126.069 133.294 119.376  1.00  0.00     0.010 A 
ATOM     13  C   UNL     1     126.332 135.626 119.875  1.00  0.00     0.009 A 
ATOM     14  C   UNL     1     125.585 131.963 119.432  1.00  0.00    -0.020 A 
ATOM     15  C   UNL     1     127.049 133.374 118.402  1.00  0.00     0.046 A 
ATOM     16  C   UNL     1     127.320 135.700 118.882  1.00  0.00     0.003 A 
ATOM     17  C   UNL     1     126.284 131.242 118.492  1.00  0.00     0.087 A 
ATOM     18  N   UNL     1     127.165 132.105 117.874  1.00  0.00    -0.361 N 
ATOM     19  C   UNL     1     127.702 134.577 118.126  1.00  0.00     0.027 A 
ATOM     20  C   UNL     1     121.448 133.435 121.530  1.00  0.00     0.106 C 
ATOM     21  H   UNL     1     127.805 131.849 117.135  1.00  0.00     0.166 HD
ENDBRANCH   3   4
BRANCH   2  22
ATOM     22  C   UNL     1     125.613 135.353 126.652  1.00  0.00     0.116 C 
ATOM     23  C   UNL     1     126.928 134.593 126.755  1.00  0.00     0.027 C 
ENDBRANCH   2  22
BRANCH   2  24
ATOM     24  C   UNL     1     125.176 136.694 124.592  1.00  0.00     0.116 C 
ATOM     25  C   UNL     1     125.518 137.841 125.535  1.00  0.00     0.027 C 
ENDBRANCH   2  24
TORSDOF 3
ENDMDL
