MODEL 1
REMARK VINA RESULT:    -9.020      0.000      0.000
REMARK INTER + INTRA:         -10.645
REMARK INTER:                 -10.602
REMARK INTRA:                  -0.043
REMARK UNBOUND:                -0.043
REMARK SMILES CCN(CC)C(=O)[C@@H]1C=C2c3cccc4[nH]cc(c34)C[C@H]2N(C)C1
REMARK SMILES IDX 7 1 3 2 6 3 8 4 24 5 9 6 22 7 10 8 21 9 11 10 20 11 19 12
REMARK SMILES IDX 12 13 18 14 15 15 13 16 17 17 16 18 14 19 23 20 2 22 1 23
REMARK SMILES IDX 4 24 5 25
REMARK H PARENT 16 21
ROOT
ATOM      1  O   UNL     1     104.618 119.991 109.877  1.00  0.00    -0.274 OA
ATOM      2  N   UNL     1     103.411 119.763 111.805  1.00  0.00    -0.343 N 
ATOM      3  C   UNL     1     104.219 119.253 110.789  1.00  0.00     0.230 C 
ENDROOT
BRANCH   3   4
ATOM      4  C   UNL     1     104.651 117.776 110.745  1.00  0.00     0.116 C 
ATOM      5  C   UNL     1     105.538 117.467 109.524  1.00  0.00     0.102 C 
ATOM      6  C   UNL     1     103.497 116.821 110.910  1.00  0.00    -0.007 C 
ATOM      7  N   UNL     1     105.841 116.035 109.328  1.00  0.00    -0.298 NA
ATOM      8  C   UNL     1     103.453 115.675 110.208  1.00  0.00    -0.026 C 
ATOM      9  C   UNL     1     104.602 115.215 109.267  1.00  0.00     0.091 C 
ATOM     10  C   UNL     1     102.235 114.839 110.168  1.00  0.00    -0.011 A 
ATOM     11  C   UNL     1     104.118 115.055 107.779  1.00  0.00     0.061 C 
ATOM     12  C   UNL     1     102.037 114.223 108.920  1.00  0.00     0.010 A 
ATOM     13  C   UNL     1     101.276 114.629 111.159  1.00  0.00     0.009 A 
ATOM     14  C   UNL     1     102.844 114.268 107.756  1.00  0.00    -0.020 A 
ATOM     15  C   UNL     1     100.932 113.428 108.670  1.00  0.00     0.046 A 
ATOM     16  C   UNL     1     100.161 113.818 110.898  1.00  0.00     0.003 A 
ATOM     17  C   UNL     1     102.214 113.504 106.801  1.00  0.00     0.087 A 
ATOM     18  N   UNL     1     101.060 113.000 107.365  1.00  0.00    -0.361 N 
ATOM     19  C   UNL     1      99.963 113.202 109.650  1.00  0.00     0.027 A 
ATOM     20  C   UNL     1     106.747 115.539 110.369  1.00  0.00     0.106 C 
ATOM     21  H   UNL     1     100.399 112.397 106.893  1.00  0.00     0.166 HD
ENDBRANCH   3   4
BRANCH   2  22
ATOM     22  C   UNL     1     103.137 121.205 111.763  1.00  0.00     0.116 C 
ATOM     23  C   UNL     1     104.285 122.026 112.334  1.00  0.00     0.027 C 
ENDBRANCH   2  22
BRANCH   2  24
ATOM     24  C   UNL     1     103.005 119.058 113.029  1.00  0.00     0.116 C 
ATOM     25  C   UNL     1     101.494 118.904 113.151  1.00  0.00     0.027 C 
ENDBRANCH   2  24
TORSDOF 3
ENDMDL
MODEL 2
REMARK VINA RESULT:    -9.020      1.578      1.958
REMARK INTER + INTRA:         -10.645
REMARK INTER:                 -10.572
REMARK INTRA:                  -0.073
REMARK UNBOUND:                -0.043
REMARK SMILES CCN(CC)C(=O)[C@@H]1C=C2c3cccc4[nH]cc(c34)C[C@H]2N(C)C1
REMARK SMILES IDX 7 1 3 2 6 3 8 4 24 5 9 6 22 7 10 8 21 9 11 10 20 11 19 12
REMARK SMILES IDX 12 13 18 14 15 15 13 16 17 17 16 18 14 19 23 20 2 22 1 23
REMARK SMILES IDX 4 24 5 25
REMARK H PARENT 16 21
ROOT
ATOM      1  O   UNL     1     101.275 119.205 110.799  1.00  0.00    -0.274 OA
ATOM      2  N   UNL     1     102.511 120.621 112.101  1.00  0.00    -0.343 N 
ATOM      3  C   UNL     1     102.358 119.459 111.344  1.00  0.00     0.230 C 
ENDROOT
BRANCH   3   4
ATOM      4  C   UNL     1     103.503 118.448 111.148  1.00  0.00     0.116 C 
ATOM      5  C   UNL     1     104.367 118.782 109.918  1.00  0.00     0.102 C 
ATOM      6  C   UNL     1     103.036 117.016 111.186  1.00  0.00    -0.007 C 
ATOM      7  N   UNL     1     105.373 117.757 109.573  1.00  0.00    -0.298 NA
ATOM      8  C   UNL     1     103.575 116.099 110.363  1.00  0.00    -0.026 C 
ATOM      9  C   UNL     1     104.753 116.417 109.400  1.00  0.00     0.091 C 
ATOM     10  C   UNL     1     102.982 114.755 110.209  1.00  0.00    -0.011 A 
ATOM     11  C   UNL     1     104.365 116.177 107.894  1.00  0.00     0.061 C 
ATOM     12  C   UNL     1     103.088 114.258 108.899  1.00  0.00     0.010 A 
ATOM     13  C   UNL     1     102.321 113.968 111.154  1.00  0.00     0.009 A 
ATOM     14  C   UNL     1     103.699 114.843 107.762  1.00  0.00    -0.020 A 
ATOM     15  C   UNL     1     102.560 113.029 108.543  1.00  0.00     0.046 A 
ATOM     16  C   UNL     1     101.793 112.722 110.786  1.00  0.00     0.003 A 
ATOM     17  C   UNL     1     103.529 113.963 106.718  1.00  0.00     0.087 A 
ATOM     18  N   UNL     1     102.840 112.869 107.202  1.00  0.00    -0.361 N 
ATOM     19  C   UNL     1     101.898 112.225 109.474  1.00  0.00     0.027 A 
ATOM     20  C   UNL     1     106.447 117.714 110.570  1.00  0.00     0.106 C 
ATOM     21  H   UNL     1     102.579 112.061 106.655  1.00  0.00     0.166 HD
ENDBRANCH   3   4
BRANCH   2  22
ATOM     22  C   UNL     1     101.361 121.532 112.142  1.00  0.00     0.116 C 
ATOM     23  C   UNL     1     101.740 122.917 112.648  1.00  0.00     0.027 C 
ENDBRANCH   2  22
BRANCH   2  24
ATOM     24  C   UNL     1     103.770 121.134 112.660  1.00  0.00     0.116 C 
ATOM     25  C   UNL     1     104.695 121.719 111.601  1.00  0.00     0.027 C 
ENDBRANCH   2  24
TORSDOF 3
ENDMDL
MODEL 3
REMARK VINA RESULT:    -8.690      2.396      4.186
REMARK INTER + INTRA:         -10.258
REMARK INTER:                  -9.715
REMARK INTRA:                  -0.543
REMARK UNBOUND:                -0.043
REMARK SMILES CCN(CC)C(=O)[C@@H]1C=C2c3cccc4[nH]cc(c34)C[C@H]2N(C)C1
REMARK SMILES IDX 7 1 3 2 6 3 8 4 24 5 9 6 22 7 10 8 21 9 11 10 20 11 19 12
REMARK SMILES IDX 12 13 18 14 15 15 13 16 17 17 16 18 14 19 23 20 2 22 1 23
REMARK SMILES IDX 4 24 5 25
REMARK H PARENT 16 21
ROOT
ATOM      1  O   UNL     1      99.589 120.089 110.804  1.00  0.00    -0.274 OA
ATOM      2  N   UNL     1      98.956 119.686 112.964  1.00  0.00    -0.343 N 
ATOM      3  C   UNL     1      99.903 119.703 111.939  1.00  0.00     0.230 C 
ENDROOT
BRANCH   3   4
ATOM      4  C   UNL     1     101.359 119.252 112.157  1.00  0.00     0.116 C 
ATOM      5  C   UNL     1     102.371 120.306 111.669  1.00  0.00     0.102 C 
ATOM      6  C   UNL     1     101.629 117.866 111.631  1.00  0.00    -0.007 C 
ATOM      7  N   UNL     1     103.780 119.863 111.688  1.00  0.00    -0.298 NA
ATOM      8  C   UNL     1     102.801 117.578 111.036  1.00  0.00    -0.026 C 
ATOM      9  C   UNL     1     103.968 118.599 110.929  1.00  0.00     0.091 C 
ATOM     10  C   UNL     1     103.005 116.310 110.306  1.00  0.00    -0.011 A 
ATOM     11  C   UNL     1     104.350 118.903 109.433  1.00  0.00     0.061 C 
ATOM     12  C   UNL     1     103.825 116.458 109.174  1.00  0.00     0.010 A 
ATOM     13  C   UNL     1     102.474 115.046 110.566  1.00  0.00     0.009 A 
ATOM     14  C   UNL     1     104.483 117.613 108.684  1.00  0.00    -0.020 A 
ATOM     15  C   UNL     1     104.106 115.393 108.336  1.00  0.00     0.046 A 
ATOM     16  C   UNL     1     102.768 113.970 109.714  1.00  0.00     0.003 A 
ATOM     17  C   UNL     1     105.156 117.240 107.544  1.00  0.00     0.087 A 
ATOM     18  N   UNL     1     104.922 115.894 107.344  1.00  0.00    -0.361 N 
ATOM     19  C   UNL     1     103.588 114.119 108.581  1.00  0.00     0.027 A 
ATOM     20  C   UNL     1     104.272 119.728 113.062  1.00  0.00     0.106 C 
ATOM     21  H   UNL     1     105.296 115.348 106.580  1.00  0.00     0.166 HD
ENDBRANCH   3   4
BRANCH   2  22
ATOM     22  C   UNL     1      97.625 120.213 112.635  1.00  0.00     0.116 C 
ATOM     23  C   UNL     1      97.407 121.613 113.190  1.00  0.00     0.027 C 
ENDBRANCH   2  22
BRANCH   2  24
ATOM     24  C   UNL     1      99.218 119.418 114.385  1.00  0.00     0.116 C 
ATOM     25  C   UNL     1      98.993 117.960 114.764  1.00  0.00     0.027 C 
ENDBRANCH   2  24
TORSDOF 3
ENDMDL
MODEL 4
REMARK VINA RESULT:    -8.649      2.556      4.405
REMARK INTER + INTRA:         -10.209
REMARK INTER:                  -9.738
REMARK INTRA:                  -0.471
REMARK UNBOUND:                -0.043
REMARK SMILES CCN(CC)C(=O)[C@@H]1C=C2c3cccc4[nH]cc(c34)C[C@H]2N(C)C1
REMARK SMILES IDX 7 1 3 2 6 3 8 4 24 5 9 6 22 7 10 8 21 9 11 10 20 11 19 12
REMARK SMILES IDX 12 13 18 14 15 15 13 16 17 17 16 18 14 19 23 20 2 22 1 23
REMARK SMILES IDX 4 24 5 25
REMARK H PARENT 16 21
ROOT
ATOM      1  O   UNL     1      99.487 120.164 110.530  1.00  0.00    -0.274 OA
ATOM      2  N   UNL     1      98.927 120.572 112.710  1.00  0.00    -0.343 N 
ATOM      3  C   UNL     1      99.811 120.124 111.726  1.00  0.00     0.230 C 
ENDROOT
BRANCH   3   4
ATOM      4  C   UNL     1     101.206 119.568 112.065  1.00  0.00     0.116 C 
ATOM      5  C   UNL     1     102.329 120.554 111.691  1.00  0.00     0.102 C 
ATOM      6  C   UNL     1     101.426 118.174 111.538  1.00  0.00    -0.007 C 
ATOM      7  N   UNL     1     103.696 120.011 111.827  1.00  0.00    -0.298 NA
ATOM      8  C   UNL     1     102.623 117.811 111.045  1.00  0.00    -0.026 C 
ATOM      9  C   UNL     1     103.864 118.747 111.063  1.00  0.00     0.091 C 
ATOM     10  C   UNL     1     102.804 116.541 110.311  1.00  0.00    -0.011 A 
ATOM     11  C   UNL     1     104.400 119.044 109.614  1.00  0.00     0.061 C 
ATOM     12  C   UNL     1     103.732 116.646 109.260  1.00  0.00     0.010 A 
ATOM     13  C   UNL     1     102.165 115.315 110.497  1.00  0.00     0.009 A 
ATOM     14  C   UNL     1     104.511 117.758 108.855  1.00  0.00    -0.020 A 
ATOM     15  C   UNL     1     104.013 115.575 108.430  1.00  0.00     0.046 A 
ATOM     16  C   UNL     1     102.459 114.233 109.654  1.00  0.00     0.003 A 
ATOM     17  C   UNL     1     105.257 117.353 107.772  1.00  0.00     0.087 A 
ATOM     18  N   UNL     1     104.948 116.030 107.525  1.00  0.00    -0.361 N 
ATOM     19  C   UNL     1     103.387 114.338 108.602  1.00  0.00     0.027 A 
ATOM     20  C   UNL     1     104.051 119.823 113.237  1.00  0.00     0.106 C 
ATOM     21  H   UNL     1     105.352 115.470 106.787  1.00  0.00     0.166 HD
ENDBRANCH   3   4
BRANCH   2  22
ATOM     22  C   UNL     1      97.660 121.146 112.240  1.00  0.00     0.116 C 
ATOM     23  C   UNL     1      96.490 120.191 112.428  1.00  0.00     0.027 C 
ENDBRANCH   2  22
BRANCH   2  24
ATOM     24  C   UNL     1      99.231 120.741 114.138  1.00  0.00     0.116 C 
ATOM     25  C   UNL     1      98.999 122.165 114.628  1.00  0.00     0.027 C 
ENDBRANCH   2  24
TORSDOF 3
ENDMDL
MODEL 5
REMARK VINA RESULT:    -8.610      1.657      2.063
REMARK INTER + INTRA:         -10.163
REMARK INTER:                 -10.301
REMARK INTRA:                   0.138
REMARK UNBOUND:                -0.043
REMARK SMILES CCN(CC)C(=O)[C@@H]1C=C2c3cccc4[nH]cc(c34)C[C@H]2N(C)C1
REMARK SMILES IDX 7 1 3 2 6 3 8 4 24 5 9 6 22 7 10 8 21 9 11 10 20 11 19 12
REMARK SMILES IDX 12 13 18 14 15 15 13 16 17 17 16 18 14 19 23 20 2 22 1 23
REMARK SMILES IDX 4 24 5 25
REMARK H PARENT 16 21
ROOT
ATOM      1  O   UNL     1     103.452 120.941 112.615  1.00  0.00    -0.274 OA
ATOM      2  N   UNL     1     101.622 119.851 111.782  1.00  0.00    -0.343 N 
ATOM      3  C   UNL     1     102.997 119.976 111.983  1.00  0.00     0.230 C 
ENDROOT
BRANCH   3   4
ATOM      4  C   UNL     1     104.005 118.945 111.443  1.00  0.00     0.116 C 
ATOM      5  C   UNL     1     104.511 119.313 110.035  1.00  0.00     0.102 C 
ATOM      6  C   UNL     1     103.510 117.527 111.554  1.00  0.00    -0.007 C 
ATOM      7  N   UNL     1     105.343 118.277 109.389  1.00  0.00    -0.298 NA
ATOM      8  C   UNL     1     103.767 116.634 110.581  1.00  0.00    -0.026 C 
ATOM      9  C   UNL     1     104.647 116.964 109.344  1.00  0.00     0.091 C 
ATOM     10  C   UNL     1     103.102 115.315 110.547  1.00  0.00    -0.011 A 
ATOM     11  C   UNL     1     103.852 116.805 107.995  1.00  0.00     0.061 C 
ATOM     12  C   UNL     1     102.826 114.877 109.240  1.00  0.00     0.010 A 
ATOM     13  C   UNL     1     102.695 114.504 111.606  1.00  0.00     0.009 A 
ATOM     14  C   UNL     1     103.124 115.497 108.001  1.00  0.00    -0.020 A 
ATOM     15  C   UNL     1     102.173 113.681 108.997  1.00  0.00     0.046 A 
ATOM     16  C   UNL     1     102.038 113.291 111.352  1.00  0.00     0.003 A 
ATOM     17  C   UNL     1     102.640 114.672 107.012  1.00  0.00     0.087 A 
ATOM     18  N   UNL     1     102.069 113.576 107.626  1.00  0.00    -0.361 N 
ATOM     19  C   UNL     1     101.761 112.853 110.044  1.00  0.00     0.027 A 
ATOM     20  C   UNL     1     106.646 118.158 110.050  1.00  0.00     0.106 C 
ATOM     21  H   UNL     1     101.636 112.801 107.143  1.00  0.00     0.166 HD
ENDBRANCH   3   4
BRANCH   2  22
ATOM     22  C   UNL     1     100.772 120.866 112.416  1.00  0.00     0.116 C 
ATOM     23  C   UNL     1      99.695 121.386 111.474  1.00  0.00     0.027 C 
ENDBRANCH   2  22
BRANCH   2  24
ATOM     24  C   UNL     1     100.931 118.689 111.206  1.00  0.00     0.116 C 
ATOM     25  C   UNL     1     100.151 117.890 112.242  1.00  0.00     0.027 C 
ENDBRANCH   2  24
TORSDOF 3
ENDMDL
MODEL 6
REMARK VINA RESULT:    -8.109      4.035      7.542
REMARK INTER + INTRA:          -9.574
REMARK INTER:                  -9.090
REMARK INTRA:                  -0.484
REMARK UNBOUND:                -0.043
REMARK SMILES CCN(CC)C(=O)[C@@H]1C=C2c3cccc4[nH]cc(c34)C[C@H]2N(C)C1
REMARK SMILES IDX 7 1 3 2 6 3 8 4 24 5 9 6 22 7 10 8 21 9 11 10 20 11 19 12
REMARK SMILES IDX 12 13 18 14 15 15 13 16 17 17 16 18 14 19 23 20 2 22 1 23
REMARK SMILES IDX 4 24 5 25
REMARK H PARENT 16 21
ROOT
ATOM      1  O   UNL     1     101.527 116.878 111.913  1.00  0.00    -0.274 OA
ATOM      2  N   UNL     1     102.946 117.117 110.136  1.00  0.00    -0.343 N 
ATOM      3  C   UNL     1     102.084 117.634 111.104  1.00  0.00     0.230 C 
ENDROOT
BRANCH   3   4
ATOM      4  C   UNL     1     101.783 119.140 111.218  1.00  0.00     0.116 C 
ATOM      5  C   UNL     1     102.166 119.704 112.599  1.00  0.00     0.102 C 
ATOM      6  C   UNL     1     100.383 119.493 110.789  1.00  0.00    -0.007 C 
ATOM      7  N   UNL     1     101.742 121.100 112.834  1.00  0.00    -0.298 NA
ATOM      8  C   UNL     1      99.684 120.436 111.445  1.00  0.00    -0.026 C 
ATOM      9  C   UNL     1     100.283 121.275 112.608  1.00  0.00     0.091 C 
ATOM     10  C   UNL     1      98.240 120.637 111.204  1.00  0.00    -0.011 A 
ATOM     11  C   UNL     1      99.488 121.076 113.951  1.00  0.00     0.061 C 
ATOM     12  C   UNL     1      97.537 120.993 112.367  1.00  0.00     0.010 A 
ATOM     13  C   UNL     1      97.513 120.483 110.023  1.00  0.00     0.009 A 
ATOM     14  C   UNL     1      98.021 121.210 113.681  1.00  0.00    -0.020 A 
ATOM     15  C   UNL     1      96.167 121.189 112.357  1.00  0.00     0.046 A 
ATOM     16  C   UNL     1      96.125 120.689 110.019  1.00  0.00     0.003 A 
ATOM     17  C   UNL     1      96.935 121.531 114.462  1.00  0.00     0.087 A 
ATOM     18  N   UNL     1      95.819 121.517 113.650  1.00  0.00    -0.361 N 
ATOM     19  C   UNL     1      95.421 121.044 111.184  1.00  0.00     0.027 A 
ATOM     20  C   UNL     1     102.517 122.033 112.010  1.00  0.00     0.106 C 
ATOM     21  H   UNL     1      94.877 121.721 113.956  1.00  0.00     0.166 HD
ENDBRANCH   3   4
BRANCH   2  22
ATOM     22  C   UNL     1     103.200 115.672 110.189  1.00  0.00     0.116 C 
ATOM     23  C   UNL     1     104.670 115.354 110.424  1.00  0.00     0.027 C 
ENDBRANCH   2  22
BRANCH   2  24
ATOM     24  C   UNL     1     103.799 117.896 109.227  1.00  0.00     0.116 C 
ATOM     25  C   UNL     1     103.499 117.630 107.758  1.00  0.00     0.027 C 
ENDBRANCH   2  24
TORSDOF 3
ENDMDL
MODEL 7
REMARK VINA RESULT:    -8.066      4.255      7.471
REMARK INTER + INTRA:          -9.524
REMARK INTER:                  -9.034
REMARK INTRA:                  -0.490
REMARK UNBOUND:                -0.043
REMARK SMILES CCN(CC)C(=O)[C@@H]1C=C2c3cccc4[nH]cc(c34)C[C@H]2N(C)C1
REMARK SMILES IDX 7 1 3 2 6 3 8 4 24 5 9 6 22 7 10 8 21 9 11 10 20 11 19 12
REMARK SMILES IDX 12 13 18 14 15 15 13 16 17 17 16 18 14 19 23 20 2 22 1 23
REMARK SMILES IDX 4 24 5 25
REMARK H PARENT 16 21
ROOT
ATOM      1  O   UNL     1      99.443 121.130 115.687  1.00  0.00    -0.274 OA
ATOM      2  N   UNL     1      97.508 122.293 115.323  1.00  0.00    -0.343 N 
ATOM      3  C   UNL     1      98.634 121.601 114.875  1.00  0.00     0.230 C 
ENDROOT
BRANCH   3   4
ATOM      4  C   UNL     1      98.928 121.390 113.379  1.00  0.00     0.116 C 
ATOM      5  C   UNL     1      98.360 120.055 112.859  1.00  0.00     0.102 C 
ATOM      6  C   UNL     1     100.378 121.605 113.029  1.00  0.00    -0.007 C 
ATOM      7  N   UNL     1      98.757 119.711 111.479  1.00  0.00    -0.298 NA
ATOM      8  C   UNL     1     100.985 120.822 112.119  1.00  0.00    -0.026 C 
ATOM      9  C   UNL     1     100.235 119.723 111.314  1.00  0.00     0.091 C 
ATOM     10  C   UNL     1     102.450 120.851 111.928  1.00  0.00    -0.011 A 
ATOM     11  C   UNL     1     100.832 118.291 111.573  1.00  0.00     0.061 C 
ATOM     12  C   UNL     1     102.986 119.588 111.624  1.00  0.00     0.010 A 
ATOM     13  C   UNL     1     103.334 121.923 112.049  1.00  0.00     0.009 A 
ATOM     14  C   UNL     1     102.323 118.347 111.448  1.00  0.00    -0.020 A 
ATOM     15  C   UNL     1     104.345 119.399 111.446  1.00  0.00     0.046 A 
ATOM     16  C   UNL     1     104.711 121.724 111.861  1.00  0.00     0.003 A 
ATOM     17  C   UNL     1     103.292 117.410 111.170  1.00  0.00     0.087 A 
ATOM     18  N   UNL     1     104.510 118.058 111.170  1.00  0.00    -0.361 N 
ATOM     19  C   UNL     1     105.247 120.460 111.558  1.00  0.00     0.027 A 
ATOM     20  C   UNL     1      98.113 120.599 110.507  1.00  0.00     0.106 C 
ATOM     21  H   UNL     1     105.401 117.616 110.990  1.00  0.00     0.166 HD
ENDBRANCH   3   4
BRANCH   2  22
ATOM     22  C   UNL     1      97.313 122.355 116.777  1.00  0.00     0.116 C 
ATOM     23  C   UNL     1      96.693 123.674 117.219  1.00  0.00     0.027 C 
ENDBRANCH   2  22
BRANCH   2  24
ATOM     24  C   UNL     1      96.386 122.756 114.494  1.00  0.00     0.116 C 
ATOM     25  C   UNL     1      95.300 121.702 114.323  1.00  0.00     0.027 C 
ENDBRANCH   2  24
TORSDOF 3
ENDMDL
MODEL 8
REMARK VINA RESULT:    -8.024      2.583      6.181
REMARK INTER + INTRA:          -9.474
REMARK INTER:                  -9.106
REMARK INTRA:                  -0.368
REMARK UNBOUND:                -0.043
REMARK SMILES CCN(CC)C(=O)[C@@H]1C=C2c3cccc4[nH]cc(c34)C[C@H]2N(C)C1
REMARK SMILES IDX 7 1 3 2 6 3 8 4 24 5 9 6 22 7 10 8 21 9 11 10 20 11 19 12
REMARK SMILES IDX 12 13 18 14 15 15 13 16 17 17 16 18 14 19 23 20 2 22 1 23
REMARK SMILES IDX 4 24 5 25
REMARK H PARENT 16 21
ROOT
ATOM      1  O   UNL     1     102.324 112.978 112.384  1.00  0.00    -0.274 OA
ATOM      2  N   UNL     1     100.234 113.899 112.499  1.00  0.00    -0.343 N 
ATOM      3  C   UNL     1     101.496 113.772 111.916  1.00  0.00     0.230 C 
ENDROOT
BRANCH   3   4
ATOM      4  C   UNL     1     101.919 114.593 110.685  1.00  0.00     0.116 C 
ATOM      5  C   UNL     1     103.106 113.953 109.941  1.00  0.00     0.102 C 
ATOM      6  C   UNL     1     102.119 116.054 110.995  1.00  0.00    -0.007 C 
ATOM      7  N   UNL     1     103.672 114.780 108.856  1.00  0.00    -0.298 NA
ATOM      8  C   UNL     1     103.115 116.746 110.414  1.00  0.00    -0.026 C 
ATOM      9  C   UNL     1     104.056 116.132 109.340  1.00  0.00     0.091 C 
ATOM     10  C   UNL     1     103.482 118.103 110.869  1.00  0.00    -0.011 A 
ATOM     11  C   UNL     1     105.562 116.150 109.795  1.00  0.00     0.061 C 
ATOM     12  C   UNL     1     104.864 118.349 110.794  1.00  0.00     0.010 A 
ATOM     13  C   UNL     1     102.667 119.112 111.382  1.00  0.00     0.009 A 
ATOM     14  C   UNL     1     105.903 117.509 110.322  1.00  0.00    -0.020 A 
ATOM     15  C   UNL     1     105.412 119.550 111.210  1.00  0.00     0.046 A 
ATOM     16  C   UNL     1     103.230 120.329 111.798  1.00  0.00     0.003 A 
ATOM     17  C   UNL     1     107.080 118.208 110.463  1.00  0.00     0.087 A 
ATOM     18  N   UNL     1     106.770 119.441 111.000  1.00  0.00    -0.361 N 
ATOM     19  C   UNL     1     104.612 120.574 111.723  1.00  0.00     0.027 A 
ATOM     20  C   UNL     1     102.746 114.871 107.723  1.00  0.00     0.106 C 
ATOM     21  H   UNL     1     107.442 120.168 111.208  1.00  0.00     0.166 HD
ENDBRANCH   3   4
BRANCH   2  22
ATOM     22  C   UNL     1      99.938 113.001 113.622  1.00  0.00     0.116 C 
ATOM     23  C   UNL     1      98.921 113.597 114.585  1.00  0.00     0.027 C 
ENDBRANCH   2  22
BRANCH   2  24
ATOM     24  C   UNL     1      99.101 114.665 111.961  1.00  0.00     0.116 C 
ATOM     25  C   UNL     1      98.400 113.957 110.809  1.00  0.00     0.027 C 
ENDBRANCH   2  24
TORSDOF 3
ENDMDL
MODEL 9
REMARK VINA RESULT:    -7.844      8.632      9.585
REMARK INTER + INTRA:          -9.263
REMARK INTER:                  -8.787
REMARK INTRA:                  -0.475
REMARK UNBOUND:                -0.043
REMARK SMILES CCN(CC)C(=O)[C@@H]1C=C2c3cccc4[nH]cc(c34)C[C@H]2N(C)C1
REMARK SMILES IDX 7 1 3 2 6 3 8 4 24 5 9 6 22 7 10 8 21 9 11 10 20 11 19 12
REMARK SMILES IDX 12 13 18 14 15 15 13 16 17 17 16 18 14 19 23 20 2 22 1 23
REMARK SMILES IDX 4 24 5 25
REMARK H PARENT 16 21
ROOT
ATOM      1  O   UNL     1      97.969 119.349 113.246  1.00  0.00    -0.274 OA
ATOM      2  N   UNL     1      96.260 120.868 113.217  1.00  0.00    -0.343 N 
ATOM      3  C   UNL     1      97.014 119.872 113.839  1.00  0.00     0.230 C 
ENDROOT
BRANCH   3   4
ATOM      4  C   UNL     1      96.708 119.377 115.264  1.00  0.00     0.116 C 
ATOM      5  C   UNL     1      97.991 119.057 116.055  1.00  0.00     0.102 C 
ATOM      6  C   UNL     1      95.688 118.269 115.295  1.00  0.00    -0.007 C 
ATOM      7  N   UNL     1      97.763 118.413 117.365  1.00  0.00    -0.298 NA
ATOM      8  C   UNL     1      95.811 117.250 116.164  1.00  0.00    -0.026 C 
ATOM      9  C   UNL     1      96.935 117.186 117.236  1.00  0.00     0.091 C 
ATOM     10  C   UNL     1      94.970 116.040 116.062  1.00  0.00    -0.011 A 
ATOM     11  C   UNL     1      97.849 115.917 117.058  1.00  0.00     0.061 C 
ATOM     12  C   UNL     1      95.656 114.866 116.419  1.00  0.00     0.010 A 
ATOM     13  C   UNL     1      93.648 115.917 115.632  1.00  0.00     0.009 A 
ATOM     14  C   UNL     1      96.986 114.707 116.881  1.00  0.00    -0.020 A 
ATOM     15  C   UNL     1      95.052 113.623 116.353  1.00  0.00     0.046 A 
ATOM     16  C   UNL     1      93.041 114.653 115.573  1.00  0.00     0.003 A 
ATOM     17  C   UNL     1      97.181 113.360 117.087  1.00  0.00     0.087 A 
ATOM     18  N   UNL     1      96.004 112.715 116.766  1.00  0.00    -0.361 N 
ATOM     19  C   UNL     1      93.729 113.480 115.930  1.00  0.00     0.027 A 
ATOM     20  C   UNL     1      97.165 119.353 118.318  1.00  0.00     0.106 C 
ATOM     21  H   UNL     1      95.856 111.717 116.826  1.00  0.00     0.166 HD
ENDBRANCH   3   4
BRANCH   2  22
ATOM     22  C   UNL     1      96.709 121.295 111.886  1.00  0.00     0.116 C 
ATOM     23  C   UNL     1      95.944 120.599 110.770  1.00  0.00     0.027 C 
ENDBRANCH   2  22
BRANCH   2  24
ATOM     24  C   UNL     1      95.217 121.689 113.849  1.00  0.00     0.116 C 
ATOM     25  C   UNL     1      95.776 122.921 114.550  1.00  0.00     0.027 C 
ENDBRANCH   2  24
TORSDOF 3
ENDMDL
MODEL 10
REMARK VINA RESULT:    -7.716      2.184      3.336
REMARK INTER + INTRA:          -9.113
REMARK INTER:                  -9.349
REMARK INTRA:                   0.236
REMARK UNBOUND:                -0.043
REMARK SMILES CCN(CC)C(=O)[C@@H]1C=C2c3cccc4[nH]cc(c34)C[C@H]2N(C)C1
REMARK SMILES IDX 7 1 3 2 6 3 8 4 24 5 9 6 22 7 10 8 21 9 11 10 20 11 19 12
REMARK SMILES IDX 12 13 18 14 15 15 13 16 17 17 16 18 14 19 23 20 2 22 1 23
REMARK SMILES IDX 4 24 5 25
REMARK H PARENT 16 21
ROOT
ATOM      1  O   UNL     1     105.363 117.165 107.073  1.00  0.00    -0.274 OA
ATOM      2  N   UNL     1     104.675 117.482 109.231  1.00  0.00    -0.343 N 
ATOM      3  C   UNL     1     104.863 116.685 108.101  1.00  0.00     0.230 C 
ENDROOT
BRANCH   3   4
ATOM      4  C   UNL     1     104.466 115.198 108.068  1.00  0.00     0.116 C 
ATOM      5  C   UNL     1     104.185 114.705 106.636  1.00  0.00     0.102 C 
ATOM      6  C   UNL     1     103.373 114.860 109.048  1.00  0.00    -0.007 C 
ATOM      7  N   UNL     1     103.631 113.338 106.552  1.00  0.00    -0.298 NA
ATOM      8  C   UNL     1     102.412 113.977 108.722  1.00  0.00    -0.026 C 
ATOM      9  C   UNL     1     102.406 113.190 107.382  1.00  0.00     0.091 C 
ATOM     10  C   UNL     1     101.206 113.803 109.558  1.00  0.00    -0.011 A 
ATOM     11  C   UNL     1     101.120 113.490 106.527  1.00  0.00     0.061 C 
ATOM     12  C   UNL     1     100.052 113.536 108.802  1.00  0.00     0.010 A 
ATOM     13  C   UNL     1     101.070 113.908 110.943  1.00  0.00     0.009 A 
ATOM     14  C   UNL     1      99.909 113.382 107.401  1.00  0.00    -0.020 A 
ATOM     15  C   UNL     1      98.813 113.378 109.399  1.00  0.00     0.046 A 
ATOM     16  C   UNL     1      99.811 113.741 111.541  1.00  0.00     0.003 A 
ATOM     17  C   UNL     1      98.577 113.139 107.157  1.00  0.00     0.087 A 
ATOM     18  N   UNL     1      97.925 113.137 108.373  1.00  0.00    -0.361 N 
ATOM     19  C   UNL     1      98.656 113.475 110.784  1.00  0.00     0.027 A 
ATOM     20  C   UNL     1     104.638 112.337 106.919  1.00  0.00     0.106 C 
ATOM     21  H   UNL     1      96.934 112.978 108.498  1.00  0.00     0.166 HD
ENDBRANCH   3   4
BRANCH   2  22
ATOM     22  C   UNL     1     105.167 118.863 109.148  1.00  0.00     0.116 C 
ATOM     23  C   UNL     1     106.470 119.057 109.910  1.00  0.00     0.027 C 
ENDBRANCH   2  22
BRANCH   2  24
ATOM     24  C   UNL     1     104.255 117.018 110.561  1.00  0.00     0.116 C 
ATOM     25  C   UNL     1     102.948 117.648 111.023  1.00  0.00     0.027 C 
ENDBRANCH   2  24
TORSDOF 3
ENDMDL
MODEL 11
REMARK VINA RESULT:    -7.687      5.020      8.238
REMARK INTER + INTRA:          -9.078
REMARK INTER:                  -8.576
REMARK INTRA:                  -0.502
REMARK UNBOUND:                -0.043
REMARK SMILES CCN(CC)C(=O)[C@@H]1C=C2c3cccc4[nH]cc(c34)C[C@H]2N(C)C1
REMARK SMILES IDX 7 1 3 2 6 3 8 4 24 5 9 6 22 7 10 8 21 9 11 10 20 11 19 12
REMARK SMILES IDX 12 13 18 14 15 15 13 16 17 17 16 18 14 19 23 20 2 22 1 23
REMARK SMILES IDX 4 24 5 25
REMARK H PARENT 16 21
ROOT
ATOM      1  O   UNL     1      98.259 121.299 116.204  1.00  0.00    -0.274 OA
ATOM      2  N   UNL     1      96.239 122.311 115.848  1.00  0.00    -0.343 N 
ATOM      3  C   UNL     1      97.386 121.655 115.399  1.00  0.00     0.230 C 
ENDROOT
BRANCH   3   4
ATOM      4  C   UNL     1      97.625 121.344 113.910  1.00  0.00     0.116 C 
ATOM      5  C   UNL     1      97.165 119.923 113.534  1.00  0.00     0.102 C 
ATOM      6  C   UNL     1      99.028 121.662 113.462  1.00  0.00    -0.007 C 
ATOM      7  N   UNL     1      97.526 119.500 112.166  1.00  0.00    -0.298 NA
ATOM      8  C   UNL     1      99.663 120.864 112.586  1.00  0.00    -0.026 C 
ATOM      9  C   UNL     1      98.986 119.635 111.917  1.00  0.00     0.091 C 
ATOM     10  C   UNL     1     101.107 121.012 112.310  1.00  0.00    -0.011 A 
ATOM     11  C   UNL     1      99.732 118.292 112.256  1.00  0.00     0.061 C 
ATOM     12  C   UNL     1     101.749 119.783 112.080  1.00  0.00     0.010 A 
ATOM     13  C   UNL     1     101.888 122.169 112.293  1.00  0.00     0.009 A 
ATOM     14  C   UNL     1     101.202 118.476 112.043  1.00  0.00    -0.020 A 
ATOM     15  C   UNL     1     103.110 119.707 111.840  1.00  0.00     0.046 A 
ATOM     16  C   UNL     1     103.266 122.084 112.044  1.00  0.00     0.003 A 
ATOM     17  C   UNL     1     102.243 117.613 111.787  1.00  0.00     0.087 A 
ATOM     18  N   UNL     1     103.391 118.369 111.664  1.00  0.00    -0.361 N 
ATOM     19  C   UNL     1     103.908 120.853 111.814  1.00  0.00     0.027 A 
ATOM     20  C   UNL     1      96.752 120.237 111.163  1.00  0.00     0.106 C 
ATOM     21  H   UNL     1     104.311 117.998 111.470  1.00  0.00     0.166 HD
ENDBRANCH   3   4
BRANCH   2  22
ATOM     22  C   UNL     1      96.105 122.476 117.301  1.00  0.00     0.116 C 
ATOM     23  C   UNL     1      96.313 123.919 117.738  1.00  0.00     0.027 C 
ENDBRANCH   2  22
BRANCH   2  24
ATOM     24  C   UNL     1      95.054 122.639 115.043  1.00  0.00     0.116 C 
ATOM     25  C   UNL     1      93.883 121.699 115.302  1.00  0.00     0.027 C 
ENDBRANCH   2  24
TORSDOF 3
ENDMDL
MODEL 12
REMARK VINA RESULT:    -7.632      8.426     10.133
REMARK INTER + INTRA:          -9.013
REMARK INTER:                  -8.515
REMARK INTRA:                  -0.499
REMARK UNBOUND:                -0.043
REMARK SMILES CCN(CC)C(=O)[C@@H]1C=C2c3cccc4[nH]cc(c34)C[C@H]2N(C)C1
REMARK SMILES IDX 7 1 3 2 6 3 8 4 24 5 9 6 22 7 10 8 21 9 11 10 20 11 19 12
REMARK SMILES IDX 12 13 18 14 15 15 13 16 17 17 16 18 14 19 23 20 2 22 1 23
REMARK SMILES IDX 4 24 5 25
REMARK H PARENT 16 21
ROOT
ATOM      1  O   UNL     1      94.918 120.309 114.540  1.00  0.00    -0.274 OA
ATOM      2  N   UNL     1      94.931 122.024 116.053  1.00  0.00    -0.343 N 
ATOM      3  C   UNL     1      95.122 120.686 115.703  1.00  0.00     0.230 C 
ENDROOT
BRANCH   3   4
ATOM      4  C   UNL     1      95.585 119.628 116.721  1.00  0.00     0.116 C 
ATOM      5  C   UNL     1      97.117 119.467 116.732  1.00  0.00     0.102 C 
ATOM      6  C   UNL     1      94.842 118.324 116.592  1.00  0.00    -0.007 C 
ATOM      7  N   UNL     1      97.613 118.347 117.557  1.00  0.00    -0.298 NA
ATOM      8  C   UNL     1      95.482 117.153 116.758  1.00  0.00    -0.026 C 
ATOM      9  C   UNL     1      96.977 117.059 117.174  1.00  0.00     0.091 C 
ATOM     10  C   UNL     1      94.845 115.866 116.409  1.00  0.00    -0.011 A 
ATOM     11  C   UNL     1      97.845 116.313 116.094  1.00  0.00     0.061 C 
ATOM     12  C   UNL     1      95.754 114.931 115.886  1.00  0.00     0.010 A 
ATOM     13  C   UNL     1      93.502 115.496 116.491  1.00  0.00     0.009 A 
ATOM     14  C   UNL     1      97.153 115.046 115.694  1.00  0.00    -0.020 A 
ATOM     15  C   UNL     1      95.345 113.678 115.464  1.00  0.00     0.046 A 
ATOM     16  C   UNL     1      93.097 114.222 116.066  1.00  0.00     0.003 A 
ATOM     17  C   UNL     1      97.583 113.859 115.147  1.00  0.00     0.087 A 
ATOM     18  N   UNL     1      96.481 113.039 115.014  1.00  0.00    -0.361 N 
ATOM     19  C   UNL     1      94.007 113.286 115.542  1.00  0.00     0.027 A 
ATOM     20  C   UNL     1      97.427 118.620 118.985  1.00  0.00     0.106 C 
ATOM     21  H   UNL     1      96.500 112.099 114.643  1.00  0.00     0.166 HD
ENDBRANCH   3   4
BRANCH   2  22
ATOM     22  C   UNL     1      94.559 122.938 114.966  1.00  0.00     0.116 C 
ATOM     23  C   UNL     1      93.314 123.749 115.296  1.00  0.00     0.027 C 
ENDBRANCH   2  22
BRANCH   2  24
ATOM     24  C   UNL     1      95.289 122.646 117.335  1.00  0.00     0.116 C 
ATOM     25  C   UNL     1      96.713 123.186 117.354  1.00  0.00     0.027 C 
ENDBRANCH   2  24
TORSDOF 3
ENDMDL
MODEL 13
REMARK VINA RESULT:    -7.527      7.644      9.507
REMARK INTER + INTRA:          -8.890
REMARK INTER:                  -8.853
REMARK INTRA:                  -0.038
REMARK UNBOUND:                -0.043
REMARK SMILES CCN(CC)C(=O)[C@@H]1C=C2c3cccc4[nH]cc(c34)C[C@H]2N(C)C1
REMARK SMILES IDX 7 1 3 2 6 3 8 4 24 5 9 6 22 7 10 8 21 9 11 10 20 11 19 12
REMARK SMILES IDX 12 13 18 14 15 15 13 16 17 17 16 18 14 19 23 20 2 22 1 23
REMARK SMILES IDX 4 24 5 25
REMARK H PARENT 16 21
ROOT
ATOM      1  O   UNL     1      94.578 121.557 114.559  1.00  0.00    -0.274 OA
ATOM      2  N   UNL     1      96.445 120.689 113.563  1.00  0.00    -0.343 N 
ATOM      3  C   UNL     1      95.509 120.740 114.598  1.00  0.00     0.230 C 
ENDROOT
BRANCH   3   4
ATOM      4  C   UNL     1      95.582 119.805 115.818  1.00  0.00     0.116 C 
ATOM      5  C   UNL     1      97.023 119.637 116.335  1.00  0.00     0.102 C 
ATOM      6  C   UNL     1      94.863 118.499 115.600  1.00  0.00    -0.007 C 
ATOM      7  N   UNL     1      97.184 118.617 117.392  1.00  0.00    -0.298 NA
ATOM      8  C   UNL     1      95.367 117.351 116.088  1.00  0.00    -0.026 C 
ATOM      9  C   UNL     1      96.648 117.297 116.967  1.00  0.00     0.091 C 
ATOM     10  C   UNL     1      94.820 116.036 115.694  1.00  0.00    -0.011 A 
ATOM     11  C   UNL     1      97.781 116.426 116.308  1.00  0.00     0.061 C 
ATOM     12  C   UNL     1      95.807 115.042 115.593  1.00  0.00     0.010 A 
ATOM     13  C   UNL     1      93.506 115.686 115.382  1.00  0.00     0.009 A 
ATOM     14  C   UNL     1      97.199 115.126 115.847  1.00  0.00    -0.020 A 
ATOM     15  C   UNL     1      95.500 113.750 115.200  1.00  0.00     0.046 A 
ATOM     16  C   UNL     1      93.202 114.373 114.989  1.00  0.00     0.003 A 
ATOM     17  C   UNL     1      97.729 113.881 115.597  1.00  0.00     0.087 A 
ATOM     18  N   UNL     1      96.692 113.057 115.209  1.00  0.00    -0.361 N 
ATOM     19  C   UNL     1      94.191 113.378 114.888  1.00  0.00     0.027 A 
ATOM     20  C   UNL     1      96.567 119.055 118.647  1.00  0.00     0.106 C 
ATOM     21  H   UNL     1      96.788 112.080 114.966  1.00  0.00     0.166 HD
ENDBRANCH   3   4
BRANCH   2  22
ATOM     22  C   UNL     1      96.213 121.588 112.425  1.00  0.00     0.116 C 
ATOM     23  C   UNL     1      95.796 120.833 111.171  1.00  0.00     0.027 C 
ENDBRANCH   2  22
BRANCH   2  24
ATOM     24  C   UNL     1      97.493 119.674 113.389  1.00  0.00     0.116 C 
ATOM     25  C   UNL     1      98.867 120.279 113.132  1.00  0.00     0.027 C 
ENDBRANCH   2  24
TORSDOF 3
ENDMDL
MODEL 14
REMARK VINA RESULT:    -7.463      4.502      7.896
REMARK INTER + INTRA:          -8.816
REMARK INTER:                  -8.496
REMARK INTRA:                  -0.319
REMARK UNBOUND:                -0.043
REMARK SMILES CCN(CC)C(=O)[C@@H]1C=C2c3cccc4[nH]cc(c34)C[C@H]2N(C)C1
REMARK SMILES IDX 7 1 3 2 6 3 8 4 24 5 9 6 22 7 10 8 21 9 11 10 20 11 19 12
REMARK SMILES IDX 12 13 18 14 15 15 13 16 17 17 16 18 14 19 23 20 2 22 1 23
REMARK SMILES IDX 4 24 5 25
REMARK H PARENT 16 21
ROOT
ATOM      1  O   UNL     1      96.394 122.553 115.619  1.00  0.00    -0.274 OA
ATOM      2  N   UNL     1      97.966 121.082 116.390  1.00  0.00    -0.343 N 
ATOM      3  C   UNL     1      97.260 121.705 115.359  1.00  0.00     0.230 C 
ENDROOT
BRANCH   3   4
ATOM      4  C   UNL     1      97.513 121.380 113.876  1.00  0.00     0.116 C 
ATOM      5  C   UNL     1      97.060 119.954 113.510  1.00  0.00     0.102 C 
ATOM      6  C   UNL     1      98.918 121.698 113.436  1.00  0.00    -0.007 C 
ATOM      7  N   UNL     1      97.434 119.519 112.148  1.00  0.00    -0.298 NA
ATOM      8  C   UNL     1      99.563 120.893 112.573  1.00  0.00    -0.026 C 
ATOM      9  C   UNL     1      98.895 119.656 111.910  1.00  0.00     0.091 C 
ATOM     10  C   UNL     1     101.009 121.043 112.308  1.00  0.00    -0.011 A 
ATOM     11  C   UNL     1      99.642 118.319 112.269  1.00  0.00     0.061 C 
ATOM     12  C   UNL     1     101.656 119.814 112.095  1.00  0.00     0.010 A 
ATOM     13  C   UNL     1     101.786 122.202 112.286  1.00  0.00     0.009 A 
ATOM     14  C   UNL     1     101.113 118.505 112.066  1.00  0.00    -0.020 A 
ATOM     15  C   UNL     1     103.019 119.740 111.867  1.00  0.00     0.046 A 
ATOM     16  C   UNL     1     103.167 122.119 112.050  1.00  0.00     0.003 A 
ATOM     17  C   UNL     1     102.158 117.642 111.827  1.00  0.00     0.087 A 
ATOM     18  N   UNL     1     103.305 118.401 111.707  1.00  0.00    -0.361 N 
ATOM     19  C   UNL     1     103.814 120.888 111.837  1.00  0.00     0.027 A 
ATOM     20  C   UNL     1      96.665 120.244 111.132  1.00  0.00     0.106 C 
ATOM     21  H   UNL     1     104.228 118.030 111.524  1.00  0.00     0.166 HD
ENDBRANCH   3   4
BRANCH   2  22
ATOM     22  C   UNL     1      97.676 121.541 117.754  1.00  0.00     0.116 C 
ATOM     23  C   UNL     1      98.890 122.172 118.420  1.00  0.00     0.027 C 
ENDBRANCH   2  22
BRANCH   2  24
ATOM     24  C   UNL     1      99.124 120.191 116.234  1.00  0.00     0.116 C 
ATOM     25  C   UNL     1      98.781 118.726 116.470  1.00  0.00     0.027 C 
ENDBRANCH   2  24
TORSDOF 3
ENDMDL
MODEL 15
REMARK VINA RESULT:    -7.454      3.324      6.228
REMARK INTER + INTRA:          -8.805
REMARK INTER:                  -8.376
REMARK INTRA:                  -0.429
REMARK UNBOUND:                -0.043
REMARK SMILES CCN(CC)C(=O)[C@@H]1C=C2c3cccc4[nH]cc(c34)C[C@H]2N(C)C1
REMARK SMILES IDX 7 1 3 2 6 3 8 4 24 5 9 6 22 7 10 8 21 9 11 10 20 11 19 12
REMARK SMILES IDX 12 13 18 14 15 15 13 16 17 17 16 18 14 19 23 20 2 22 1 23
REMARK SMILES IDX 4 24 5 25
REMARK H PARENT 16 21
ROOT
ATOM      1  O   UNL     1      98.912 120.748 110.436  1.00  0.00    -0.274 OA
ATOM      2  N   UNL     1      97.319 120.363 112.031  1.00  0.00    -0.343 N 
ATOM      3  C   UNL     1      98.604 120.211 111.510  1.00  0.00     0.230 C 
ENDROOT
BRANCH   3   4
ATOM      4  C   UNL     1      99.689 119.384 112.225  1.00  0.00     0.116 C 
ATOM      5  C   UNL     1     100.462 120.218 113.264  1.00  0.00     0.102 C 
ATOM      6  C   UNL     1     100.580 118.634 111.270  1.00  0.00    -0.007 C 
ATOM      7  N   UNL     1     101.629 119.535 113.858  1.00  0.00    -0.298 NA
ATOM      8  C   UNL     1     101.897 118.511 111.516  1.00  0.00    -0.026 C 
ATOM      9  C   UNL     1     102.566 119.042 112.815  1.00  0.00     0.091 C 
ATOM     10  C   UNL     1     102.830 117.993 110.495  1.00  0.00    -0.011 A 
ATOM     11  C   UNL     1     103.672 120.119 112.511  1.00  0.00     0.061 C 
ATOM     12  C   UNL     1     104.088 118.617 110.538  1.00  0.00     0.010 A 
ATOM     13  C   UNL     1     102.612 117.031 109.508  1.00  0.00     0.009 A 
ATOM     14  C   UNL     1     104.569 119.614 111.423  1.00  0.00    -0.020 A 
ATOM     15  C   UNL     1     105.089 118.297 109.638  1.00  0.00     0.046 A 
ATOM     16  C   UNL     1     103.634 116.708 108.602  1.00  0.00     0.003 A 
ATOM     17  C   UNL     1     105.861 119.897 111.047  1.00  0.00     0.087 A 
ATOM     18  N   UNL     1     106.166 119.093 109.967  1.00  0.00    -0.361 N 
ATOM     19  C   UNL     1     104.893 117.334 108.645  1.00  0.00     0.027 A 
ATOM     20  C   UNL     1     101.208 118.445 114.744  1.00  0.00     0.106 C 
ATOM     21  H   UNL     1     107.054 119.084 109.484  1.00  0.00     0.166 HD
ENDBRANCH   3   4
BRANCH   2  22
ATOM     22  C   UNL     1      96.408 121.239 111.283  1.00  0.00     0.116 C 
ATOM     23  C   UNL     1      95.525 120.462 110.317  1.00  0.00     0.027 C 
ENDBRANCH   2  22
BRANCH   2  24
ATOM     24  C   UNL     1      96.863 119.932 113.360  1.00  0.00     0.116 C 
ATOM     25  C   UNL     1      96.992 121.024 114.414  1.00  0.00     0.027 C 
ENDBRANCH   2  24
TORSDOF 3
ENDMDL
MODEL 16
REMARK VINA RESULT:    -7.417      6.771     10.106
REMARK INTER + INTRA:          -8.761
REMARK INTER:                  -8.624
REMARK INTRA:                  -0.136
REMARK UNBOUND:                -0.043
REMARK SMILES CCN(CC)C(=O)[C@@H]1C=C2c3cccc4[nH]cc(c34)C[C@H]2N(C)C1
REMARK SMILES IDX 7 1 3 2 6 3 8 4 24 5 9 6 22 7 10 8 21 9 11 10 20 11 19 12
REMARK SMILES IDX 12 13 18 14 15 15 13 16 17 17 16 18 14 19 23 20 2 22 1 23
REMARK SMILES IDX 4 24 5 25
REMARK H PARENT 16 21
ROOT
ATOM      1  O   UNL     1      95.952 115.843 115.413  1.00  0.00    -0.274 OA
ATOM      2  N   UNL     1      94.143 116.241 116.755  1.00  0.00    -0.343 N 
ATOM      3  C   UNL     1      95.215 116.669 115.970  1.00  0.00     0.230 C 
ENDROOT
BRANCH   3   4
ATOM      4  C   UNL     1      95.534 118.160 115.757  1.00  0.00     0.116 C 
ATOM      5  C   UNL     1      94.464 118.866 114.902  1.00  0.00     0.102 C 
ATOM      6  C   UNL     1      96.942 118.397 115.277  1.00  0.00    -0.007 C 
ATOM      7  N   UNL     1      94.800 120.251 114.515  1.00  0.00    -0.298 NA
ATOM      8  C   UNL     1      97.204 119.355 114.370  1.00  0.00    -0.026 C 
ATOM      9  C   UNL     1      96.117 120.326 113.830  1.00  0.00     0.091 C 
ATOM     10  C   UNL     1      98.521 119.454 113.708  1.00  0.00    -0.011 A 
ATOM     11  C   UNL     1      95.938 120.203 112.271  1.00  0.00     0.061 C 
ATOM     12  C   UNL     1      98.429 119.873 112.369  1.00  0.00     0.010 A 
ATOM     13  C   UNL     1      99.787 119.157 114.213  1.00  0.00     0.009 A 
ATOM     14  C   UNL     1      97.284 120.232 111.615  1.00  0.00    -0.020 A 
ATOM     15  C   UNL     1      99.550 119.992 111.567  1.00  0.00     0.046 A 
ATOM     16  C   UNL     1     100.919 119.285 113.394  1.00  0.00     0.003 A 
ATOM     17  C   UNL     1      97.721 120.561 110.353  1.00  0.00     0.087 A 
ATOM     18  N   UNL     1      99.093 120.414 110.336  1.00  0.00    -0.361 N 
ATOM     19  C   UNL     1     100.826 119.703 112.054  1.00  0.00     0.027 A 
ATOM     20  C   UNL     1      94.758 121.148 115.673  1.00  0.00     0.106 C 
ATOM     21  H   UNL     1      99.685 120.592 109.536  1.00  0.00     0.166 HD
ENDBRANCH   3   4
BRANCH   2  22
ATOM     22  C   UNL     1      93.910 114.793 116.811  1.00  0.00     0.116 C 
ATOM     23  C   UNL     1      93.077 114.297 115.637  1.00  0.00     0.027 C 
ENDBRANCH   2  22
BRANCH   2  24
ATOM     24  C   UNL     1      93.094 117.094 117.333  1.00  0.00     0.116 C 
ATOM     25  C   UNL     1      92.522 116.533 118.628  1.00  0.00     0.027 C 
ENDBRANCH   2  24
TORSDOF 3
ENDMDL
MODEL 17
REMARK VINA RESULT:    -7.330      7.099      8.827
REMARK INTER + INTRA:          -8.659
REMARK INTER:                  -8.286
REMARK INTRA:                  -0.373
REMARK UNBOUND:                -0.043
REMARK SMILES CCN(CC)C(=O)[C@@H]1C=C2c3cccc4[nH]cc(c34)C[C@H]2N(C)C1
REMARK SMILES IDX 7 1 3 2 6 3 8 4 24 5 9 6 22 7 10 8 21 9 11 10 20 11 19 12
REMARK SMILES IDX 12 13 18 14 15 15 13 16 17 17 16 18 14 19 23 20 2 22 1 23
REMARK SMILES IDX 4 24 5 25
REMARK H PARENT 16 21
ROOT
ATOM      1  O   UNL     1      96.436 119.472 112.857  1.00  0.00    -0.274 OA
ATOM      2  N   UNL     1      98.221 120.885 113.071  1.00  0.00    -0.343 N 
ATOM      3  C   UNL     1      97.430 119.821 113.508  1.00  0.00     0.230 C 
ENDROOT
BRANCH   3   4
ATOM      4  C   UNL     1      97.744 119.039 114.797  1.00  0.00     0.116 C 
ATOM      5  C   UNL     1      98.869 118.007 114.590  1.00  0.00     0.102 C 
ATOM      6  C   UNL     1      96.513 118.467 115.451  1.00  0.00    -0.007 C 
ATOM      7  N   UNL     1      99.097 117.105 115.737  1.00  0.00    -0.298 NA
ATOM      8  C   UNL     1      96.548 117.253 116.029  1.00  0.00    -0.026 C 
ATOM      9  C   UNL     1      97.848 116.409 116.145  1.00  0.00     0.091 C 
ATOM     10  C   UNL     1      95.313 116.568 116.465  1.00  0.00    -0.011 A 
ATOM     11  C   UNL     1      97.721 115.025 115.408  1.00  0.00     0.061 C 
ATOM     12  C   UNL     1      95.370 115.175 116.289  1.00  0.00     0.010 A 
ATOM     13  C   UNL     1      94.133 117.114 116.969  1.00  0.00     0.009 A 
ATOM     14  C   UNL     1      96.431 114.373 115.800  1.00  0.00    -0.020 A 
ATOM     15  C   UNL     1      94.298 114.359 116.603  1.00  0.00     0.046 A 
ATOM     16  C   UNL     1      93.052 116.279 117.290  1.00  0.00     0.003 A 
ATOM     17  C   UNL     1      95.989 113.070 115.815  1.00  0.00     0.087 A 
ATOM     18  N   UNL     1      94.699 113.074 116.304  1.00  0.00    -0.361 N 
ATOM     19  C   UNL     1      93.109 114.885 117.112  1.00  0.00     0.027 A 
ATOM     20  C   UNL     1      99.689 117.827 116.867  1.00  0.00     0.106 C 
ATOM     21  H   UNL     1      94.124 112.251 116.429  1.00  0.00     0.166 HD
ENDBRANCH   3   4
BRANCH   2  22
ATOM     22  C   UNL     1      97.849 121.492 111.787  1.00  0.00     0.116 C 
ATOM     23  C   UNL     1      98.618 120.889 110.620  1.00  0.00     0.027 C 
ENDBRANCH   2  22
BRANCH   2  24
ATOM     24  C   UNL     1      99.511 121.300 113.640  1.00  0.00     0.116 C 
ATOM     25  C   UNL     1      99.379 122.452 114.628  1.00  0.00     0.027 C 
ENDBRANCH   2  24
TORSDOF 3
ENDMDL
MODEL 18
REMARK VINA RESULT:    -7.306      2.507      6.837
REMARK INTER + INTRA:          -8.630
REMARK INTER:                  -8.277
REMARK INTRA:                  -0.354
REMARK UNBOUND:                -0.043
REMARK SMILES CCN(CC)C(=O)[C@@H]1C=C2c3cccc4[nH]cc(c34)C[C@H]2N(C)C1
REMARK SMILES IDX 7 1 3 2 6 3 8 4 24 5 9 6 22 7 10 8 21 9 11 10 20 11 19 12
REMARK SMILES IDX 12 13 18 14 15 15 13 16 17 17 16 18 14 19 23 20 2 22 1 23
REMARK SMILES IDX 4 24 5 25
REMARK H PARENT 16 21
ROOT
ATOM      1  O   UNL     1     100.653 113.463 107.551  1.00  0.00    -0.274 OA
ATOM      2  N   UNL     1     102.871 113.324 107.012  1.00  0.00    -0.343 N 
ATOM      3  C   UNL     1     101.832 113.478 107.931  1.00  0.00     0.230 C 
ENDROOT
BRANCH   3   4
ATOM      4  C   UNL     1     102.089 113.670 109.437  1.00  0.00     0.116 C 
ATOM      5  C   UNL     1     100.887 113.226 110.292  1.00  0.00     0.102 C 
ATOM      6  C   UNL     1     102.592 115.050 109.775  1.00  0.00    -0.007 C 
ATOM      7  N   UNL     1     101.000 113.547 111.729  1.00  0.00    -0.298 NA
ATOM      8  C   UNL     1     102.186 115.669 110.898  1.00  0.00    -0.026 C 
ATOM      9  C   UNL     1     101.263 114.993 111.950  1.00  0.00     0.091 C 
ATOM     10  C   UNL     1     102.470 117.099 111.138  1.00  0.00    -0.011 A 
ATOM     11  C   UNL     1      99.912 115.778 112.141  1.00  0.00     0.061 C 
ATOM     12  C   UNL     1     101.429 117.757 111.816  1.00  0.00     0.010 A 
ATOM     13  C   UNL     1     103.579 117.855 110.754  1.00  0.00     0.009 A 
ATOM     14  C   UNL     1     100.208 117.236 112.311  1.00  0.00    -0.020 A 
ATOM     15  C   UNL     1     101.489 119.109 112.102  1.00  0.00     0.046 A 
ATOM     16  C   UNL     1     103.633 119.226 111.053  1.00  0.00     0.003 A 
ATOM     17  C   UNL     1      99.529 118.284 112.889  1.00  0.00     0.087 A 
ATOM     18  N   UNL     1     100.314 119.411 112.758  1.00  0.00    -0.361 N 
ATOM     19  C   UNL     1     102.591 119.883 111.730  1.00  0.00     0.027 A 
ATOM     20  C   UNL     1     102.026 112.722 112.375  1.00  0.00     0.106 C 
ATOM     21  H   UNL     1     100.068 120.331 113.098  1.00  0.00     0.166 HD
ENDBRANCH   3   4
BRANCH   2  22
ATOM     22  C   UNL     1     102.480 113.075 105.619  1.00  0.00     0.116 C 
ATOM     23  C   UNL     1     103.625 112.505 104.793  1.00  0.00     0.027 C 
ENDBRANCH   2  22
BRANCH   2  24
ATOM     24  C   UNL     1     104.295 113.154 107.330  1.00  0.00     0.116 C 
ATOM     25  C   UNL     1     105.085 114.452 107.231  1.00  0.00     0.027 C 
ENDBRANCH   2  24
TORSDOF 3
ENDMDL
MODEL 19
REMARK VINA RESULT:    -7.112      3.944      7.949
REMARK INTER + INTRA:          -8.403
REMARK INTER:                  -7.834
REMARK INTRA:                  -0.569
REMARK UNBOUND:                -0.043
REMARK SMILES CCN(CC)C(=O)[C@@H]1C=C2c3cccc4[nH]cc(c34)C[C@H]2N(C)C1
REMARK SMILES IDX 7 1 3 2 6 3 8 4 24 5 9 6 22 7 10 8 21 9 11 10 20 11 19 12
REMARK SMILES IDX 12 13 18 14 15 15 13 16 17 17 16 18 14 19 23 20 2 22 1 23
REMARK SMILES IDX 4 24 5 25
REMARK H PARENT 16 21
ROOT
ATOM      1  O   UNL     1     103.122 120.785 112.693  1.00  0.00    -0.274 OA
ATOM      2  N   UNL     1     103.351 118.924 111.384  1.00  0.00    -0.343 N 
ATOM      3  C   UNL     1     102.578 119.865 112.065  1.00  0.00     0.230 C 
ENDROOT
BRANCH   3   4
ATOM      4  C   UNL     1     101.040 119.814 112.074  1.00  0.00     0.116 C 
ATOM      5  C   UNL     1     100.412 121.212 111.919  1.00  0.00     0.102 C 
ATOM      6  C   UNL     1     100.485 119.029 113.235  1.00  0.00    -0.007 C 
ATOM      7  N   UNL     1      98.946 121.253 112.096  1.00  0.00    -0.298 NA
ATOM      8  C   UNL     1      99.367 119.435 113.863  1.00  0.00    -0.026 C 
ATOM      9  C   UNL     1      98.533 120.661 113.395  1.00  0.00     0.091 C 
ATOM     10  C   UNL     1      98.933 118.830 115.139  1.00  0.00    -0.011 A 
ATOM     11  C   UNL     1      98.442 121.771 114.506  1.00  0.00     0.061 C 
ATOM     12  C   UNL     1      98.336 119.758 116.009  1.00  0.00     0.010 A 
ATOM     13  C   UNL     1      99.076 117.515 115.586  1.00  0.00     0.009 A 
ATOM     14  C   UNL     1      98.074 121.137 115.811  1.00  0.00    -0.020 A 
ATOM     15  C   UNL     1      97.896 119.394 117.269  1.00  0.00     0.046 A 
ATOM     16  C   UNL     1      98.623 117.153 116.863  1.00  0.00     0.003 A 
ATOM     17  C   UNL     1      97.481 121.602 116.962  1.00  0.00     0.087 A 
ATOM     18  N   UNL     1      97.377 120.539 117.836  1.00  0.00    -0.361 N 
ATOM     19  C   UNL     1      98.026 118.083 117.733  1.00  0.00     0.027 A 
ATOM     20  C   UNL     1      98.261 120.597 110.978  1.00  0.00     0.106 C 
ATOM     21  H   UNL     1      96.975 120.588 118.763  1.00  0.00     0.166 HD
ENDBRANCH   3   4
BRANCH   2  22
ATOM     22  C   UNL     1     104.804 119.136 111.398  1.00  0.00     0.116 C 
ATOM     23  C   UNL     1     105.357 119.427 110.010  1.00  0.00     0.027 C 
ENDBRANCH   2  22
BRANCH   2  24
ATOM     24  C   UNL     1     102.852 117.888 110.469  1.00  0.00     0.116 C 
ATOM     25  C   UNL     1     102.658 116.539 111.150  1.00  0.00     0.027 C 
ENDBRANCH   2  24
TORSDOF 3
ENDMDL
MODEL 20
REMARK VINA RESULT:    -7.068      2.711      6.376
REMARK INTER + INTRA:          -8.351
REMARK INTER:                  -8.442
REMARK INTRA:                   0.091
REMARK UNBOUND:                -0.043
REMARK SMILES CCN(CC)C(=O)[C@@H]1C=C2c3cccc4[nH]cc(c34)C[C@H]2N(C)C1
REMARK SMILES IDX 7 1 3 2 6 3 8 4 24 5 9 6 22 7 10 8 21 9 11 10 20 11 19 12
REMARK SMILES IDX 12 13 18 14 15 15 13 16 17 17 16 18 14 19 23 20 2 22 1 23
REMARK SMILES IDX 4 24 5 25
REMARK H PARENT 16 21
ROOT
ATOM      1  O   UNL     1     103.349 116.881 107.884  1.00  0.00    -0.274 OA
ATOM      2  N   UNL     1     102.826 115.527 109.650  1.00  0.00    -0.343 N 
ATOM      3  C   UNL     1     103.095 116.778 109.092  1.00  0.00     0.230 C 
ENDROOT
BRANCH   3   4
ATOM      4  C   UNL     1     103.090 118.070 109.929  1.00  0.00     0.116 C 
ATOM      5  C   UNL     1     103.779 117.878 111.294  1.00  0.00     0.102 C 
ATOM      6  C   UNL     1     101.726 118.703 110.025  1.00  0.00    -0.007 C 
ATOM      7  N   UNL     1     103.654 119.028 112.214  1.00  0.00    -0.298 NA
ATOM      8  C   UNL     1     101.319 119.279 111.170  1.00  0.00    -0.026 C 
ATOM      9  C   UNL     1     102.234 119.414 112.420  1.00  0.00     0.091 C 
ATOM     10  C   UNL     1      99.915 119.694 111.371  1.00  0.00    -0.011 A 
ATOM     11  C   UNL     1     101.635 118.672 113.672  1.00  0.00     0.061 C 
ATOM     12  C   UNL     1      99.477 119.516 112.694  1.00  0.00     0.010 A 
ATOM     13  C   UNL     1      98.997 120.180 110.440  1.00  0.00     0.009 A 
ATOM     14  C   UNL     1     100.192 119.043 113.823  1.00  0.00    -0.020 A 
ATOM     15  C   UNL     1      98.180 119.811 113.076  1.00  0.00     0.046 A 
ATOM     16  C   UNL     1      97.685 120.482 110.836  1.00  0.00     0.003 A 
ATOM     17  C   UNL     1      99.316 119.048 114.884  1.00  0.00     0.087 A 
ATOM     18  N   UNL     1      98.103 119.516 114.421  1.00  0.00    -0.361 N 
ATOM     19  C   UNL     1      97.247 120.302 112.160  1.00  0.00     0.027 A 
ATOM     20  C   UNL     1     104.446 120.169 111.744  1.00  0.00     0.106 C 
ATOM     21  H   UNL     1      97.273 119.630 114.986  1.00  0.00     0.166 HD
ENDBRANCH   3   4
BRANCH   2  22
ATOM     22  C   UNL     1     102.790 114.390 108.723  1.00  0.00     0.116 C 
ATOM     23  C   UNL     1     104.171 113.797 108.485  1.00  0.00     0.027 C 
ENDBRANCH   2  22
BRANCH   2  24
ATOM     24  C   UNL     1     102.348 115.270 111.017  1.00  0.00     0.116 C 
ATOM     25  C   UNL     1     101.269 114.196 111.075  1.00  0.00     0.027 C 
ENDBRANCH   2  24
TORSDOF 3
ENDMDL
