MODEL 1
REMARK VINA RESULT:    -8.342      0.000      0.000
REMARK INTER + INTRA:         -10.352
REMARK INTER:                  -9.805
REMARK INTRA:                  -0.548
REMARK UNBOUND:                -0.548
REMARK SMILES CCN(CC)C(=O)[C@@H]1C=C2c3cccc4[nH]cc(c34)C[C@H]2N(C)C1
REMARK SMILES IDX 7 1 3 2 6 3 8 4 24 5 9 6 22 7 10 8 21 9 11 10 20 11 19 12
REMARK SMILES IDX 12 13 18 14 15 15 13 16 17 17 16 18 14 19 23 20 2 22 1 23
REMARK SMILES IDX 4 24 5 25
REMARK H PARENT 16 21
ROOT
ATOM      1  O   UNL     1      94.774 106.939  92.458  1.00  0.00    -0.274 OA
ATOM      2  N   UNL     1      96.404 107.135  90.866  1.00  0.00    -0.343 N 
ATOM      3  C   UNL     1      95.966 107.149  92.191  1.00  0.00     0.230 C 
ENDROOT
BRANCH   3   4
ATOM      4  C   UNL     1      96.919 107.419  93.370  1.00  0.00     0.116 C 
ATOM      5  C   UNL     1      96.783 106.359  94.480  1.00  0.00     0.102 C 
ATOM      6  C   UNL     1      96.839 108.836  93.877  1.00  0.00    -0.007 C 
ATOM      7  N   UNL     1      97.541 106.656  95.712  1.00  0.00    -0.298 NA
ATOM      8  C   UNL     1      96.926 109.097  95.193  1.00  0.00    -0.026 C 
ATOM      9  C   UNL     1      97.198 107.997  96.257  1.00  0.00     0.091 C 
ATOM     10  C   UNL     1      96.617 110.435  95.738  1.00  0.00    -0.011 A 
ATOM     11  C   UNL     1      96.030 107.886  97.305  1.00  0.00     0.061 C 
ATOM     12  C   UNL     1      95.996 110.381  96.998  1.00  0.00     0.010 A 
ATOM     13  C   UNL     1      96.818 111.690  95.163  1.00  0.00     0.009 A 
ATOM     14  C   UNL     1      95.676 109.255  97.796  1.00  0.00    -0.020 A 
ATOM     15  C   UNL     1      95.594 111.529  97.659  1.00  0.00     0.046 A 
ATOM     16  C   UNL     1      96.412 112.849  95.842  1.00  0.00     0.003 A 
ATOM     17  C   UNL     1      95.072 109.730  98.938  1.00  0.00     0.087 A 
ATOM     18  N   UNL     1      95.030 111.107  98.844  1.00  0.00    -0.361 N 
ATOM     19  C   UNL     1      95.790 112.795  97.103  1.00  0.00     0.027 A 
ATOM     20  C   UNL     1      98.984 106.534  95.488  1.00  0.00     0.106 C 
ATOM     21  H   UNL     1      94.643 111.723  99.546  1.00  0.00     0.166 HD
ENDBRANCH   3   4
BRANCH   2  22
ATOM     22  C   UNL     1      95.404 106.791  89.849  1.00  0.00     0.116 C 
ATOM     23  C   UNL     1      95.564 105.364  89.343  1.00  0.00     0.027 C 
ENDBRANCH   2  22
BRANCH   2  24
ATOM     24  C   UNL     1      97.801 107.199  90.413  1.00  0.00     0.116 C 
ATOM     25  C   UNL     1      98.203 108.585  89.927  1.00  0.00     0.027 C 
ENDBRANCH   2  24
TORSDOF 3
ENDMDL
MODEL 2
REMARK VINA RESULT:    -7.922      2.997      7.303
REMARK INTER + INTRA:          -9.859
REMARK INTER:                  -9.333
REMARK INTRA:                  -0.526
REMARK UNBOUND:                -0.548
REMARK SMILES CCN(CC)C(=O)[C@@H]1C=C2c3cccc4[nH]cc(c34)C[C@H]2N(C)C1
REMARK SMILES IDX 7 1 3 2 6 3 8 4 24 5 9 6 22 7 10 8 21 9 11 10 20 11 19 12
REMARK SMILES IDX 12 13 18 14 15 15 13 16 17 17 16 18 14 19 23 20 2 22 1 23
REMARK SMILES IDX 4 24 5 25
REMARK H PARENT 16 21
ROOT
ATOM      1  O   UNL     1      96.310 109.014  99.136  1.00  0.00    -0.274 OA
ATOM      2  N   UNL     1      97.342 110.971  98.561  1.00  0.00    -0.343 N 
ATOM      3  C   UNL     1      96.945 109.661  98.292  1.00  0.00     0.230 C 
ENDROOT
BRANCH   3   4
ATOM      4  C   UNL     1      97.269 108.961  96.959  1.00  0.00     0.116 C 
ATOM      5  C   UNL     1      96.018 108.336  96.314  1.00  0.00     0.102 C 
ATOM      6  C   UNL     1      98.433 108.010  97.063  1.00  0.00    -0.007 C 
ATOM      7  N   UNL     1      96.288 107.501  95.126  1.00  0.00    -0.298 NA
ATOM      8  C   UNL     1      98.425 106.844  96.394  1.00  0.00    -0.026 C 
ATOM      9  C   UNL     1      97.285 106.438  95.418  1.00  0.00     0.091 C 
ATOM     10  C   UNL     1      99.431 105.794  96.657  1.00  0.00    -0.011 A 
ATOM     11  C   UNL     1      96.565 105.113  95.869  1.00  0.00     0.061 C 
ATOM     12  C   UNL     1      98.905 104.495  96.551  1.00  0.00     0.010 A 
ATOM     13  C   UNL     1     100.771 105.928  97.022  1.00  0.00     0.009 A 
ATOM     14  C   UNL     1      97.596 104.079  96.203  1.00  0.00    -0.020 A 
ATOM     15  C   UNL     1      99.681 103.375  96.797  1.00  0.00     0.046 A 
ATOM     16  C   UNL     1     101.552 104.787  97.265  1.00  0.00     0.003 A 
ATOM     17  C   UNL     1      97.586 102.704  96.248  1.00  0.00     0.087 A 
ATOM     18  N   UNL     1      98.852 102.290  96.607  1.00  0.00    -0.361 N 
ATOM     19  C   UNL     1     101.025 103.488  97.160  1.00  0.00     0.027 A 
ATOM     20  C   UNL     1      96.714 108.323  93.989  1.00  0.00     0.106 C 
ATOM     21  H   UNL     1      99.137 101.326  96.713  1.00  0.00     0.166 HD
ENDBRANCH   3   4
BRANCH   2  22
ATOM     22  C   UNL     1      96.902 111.539  99.842  1.00  0.00     0.116 C 
ATOM     23  C   UNL     1      95.638 112.375  99.697  1.00  0.00     0.027 C 
ENDBRANCH   2  22
BRANCH   2  24
ATOM     24  C   UNL     1      97.947 111.910  97.605  1.00  0.00     0.116 C 
ATOM     25  C   UNL     1      99.469 111.902  97.649  1.00  0.00     0.027 C 
ENDBRANCH   2  24
TORSDOF 3
ENDMDL
MODEL 3
REMARK VINA RESULT:    -7.864      2.621      6.814
REMARK INTER + INTRA:          -9.790
REMARK INTER:                  -9.318
REMARK INTRA:                  -0.472
REMARK UNBOUND:                -0.548
REMARK SMILES CCN(CC)C(=O)[C@@H]1C=C2c3cccc4[nH]cc(c34)C[C@H]2N(C)C1
REMARK SMILES IDX 7 1 3 2 6 3 8 4 24 5 9 6 22 7 10 8 21 9 11 10 20 11 19 12
REMARK SMILES IDX 12 13 18 14 15 15 13 16 17 17 16 18 14 19 23 20 2 22 1 23
REMARK SMILES IDX 4 24 5 25
REMARK H PARENT 16 21
ROOT
ATOM      1  O   UNL     1      95.927 109.615  97.923  1.00  0.00    -0.274 OA
ATOM      2  N   UNL     1      97.224 111.343  97.175  1.00  0.00    -0.343 N 
ATOM      3  C   UNL     1      96.730 110.041  97.081  1.00  0.00     0.230 C 
ENDROOT
BRANCH   3   4
ATOM      4  C   UNL     1      97.147 109.083  95.951  1.00  0.00     0.116 C 
ATOM      5  C   UNL     1      95.974 108.207  95.472  1.00  0.00     0.102 C 
ATOM      6  C   UNL     1      98.392 108.299  96.275  1.00  0.00    -0.007 C 
ATOM      7  N   UNL     1      96.347 107.147  94.513  1.00  0.00    -0.298 NA
ATOM      8  C   UNL     1      98.507 107.013  95.899  1.00  0.00    -0.026 C 
ATOM      9  C   UNL     1      97.432 106.282  95.047  1.00  0.00     0.091 C 
ATOM     10  C   UNL     1      99.601 106.156  96.401  1.00  0.00    -0.011 A 
ATOM     11  C   UNL     1      96.829 105.038  95.798  1.00  0.00     0.061 C 
ATOM     12  C   UNL     1      99.201 104.824  96.605  1.00  0.00     0.010 A 
ATOM     13  C   UNL     1     100.914 106.499  96.724  1.00  0.00     0.009 A 
ATOM     14  C   UNL     1      97.944 104.215  96.366  1.00  0.00    -0.020 A 
ATOM     15  C   UNL     1     100.072 103.873  97.108  1.00  0.00     0.046 A 
ATOM     16  C   UNL     1     101.792 105.528  97.229  1.00  0.00     0.003 A 
ATOM     17  C   UNL     1      98.061 102.894  96.734  1.00  0.00     0.087 A 
ATOM     18  N   UNL     1      99.352 102.699  97.179  1.00  0.00    -0.361 N 
ATOM     19  C   UNL     1     101.391 104.195  97.433  1.00  0.00     0.027 A 
ATOM     20  C   UNL     1      96.720 107.716  93.215  1.00  0.00     0.106 C 
ATOM     21  H   UNL     1      99.724 101.818  97.510  1.00  0.00     0.166 HD
ENDBRANCH   3   4
BRANCH   2  22
ATOM     22  C   UNL     1      96.685 112.172  98.260  1.00  0.00     0.116 C 
ATOM     23  C   UNL     1      97.605 112.203  99.473  1.00  0.00     0.027 C 
ENDBRANCH   2  22
BRANCH   2  24
ATOM     24  C   UNL     1      98.042 112.037  96.169  1.00  0.00     0.116 C 
ATOM     25  C   UNL     1      97.211 112.648  95.048  1.00  0.00     0.027 C 
ENDBRANCH   2  24
TORSDOF 3
ENDMDL
MODEL 4
REMARK VINA RESULT:    -7.766      2.856      7.201
REMARK INTER + INTRA:          -9.675
REMARK INTER:                  -9.170
REMARK INTRA:                  -0.505
REMARK UNBOUND:                -0.548
REMARK SMILES CCN(CC)C(=O)[C@@H]1C=C2c3cccc4[nH]cc(c34)C[C@H]2N(C)C1
REMARK SMILES IDX 7 1 3 2 6 3 8 4 24 5 9 6 22 7 10 8 21 9 11 10 20 11 19 12
REMARK SMILES IDX 12 13 18 14 15 15 13 16 17 17 16 18 14 19 23 20 2 22 1 23
REMARK SMILES IDX 4 24 5 25
REMARK H PARENT 16 21
ROOT
ATOM      1  O   UNL     1      97.310 105.004  96.096  1.00  0.00    -0.274 OA
ATOM      2  N   UNL     1      99.446 105.764  96.394  1.00  0.00    -0.343 N 
ATOM      3  C   UNL     1      98.179 105.842  95.815  1.00  0.00     0.230 C 
ENDROOT
BRANCH   3   4
ATOM      4  C   UNL     1      97.798 106.949  94.814  1.00  0.00     0.116 C 
ATOM      5  C   UNL     1      96.351 107.439  95.015  1.00  0.00     0.102 C 
ATOM      6  C   UNL     1      98.120 106.587  93.388  1.00  0.00    -0.007 C 
ATOM      7  N   UNL     1      95.868 108.373  93.978  1.00  0.00    -0.298 NA
ATOM      8  C   UNL     1      97.291 106.940  92.389  1.00  0.00    -0.026 C 
ATOM      9  C   UNL     1      96.019 107.804  92.613  1.00  0.00     0.091 C 
ATOM     10  C   UNL     1      97.454 106.402  91.022  1.00  0.00    -0.011 A 
ATOM     11  C   UNL     1      94.708 107.047  92.181  1.00  0.00     0.061 C 
ATOM     12  C   UNL     1      96.227 106.187  90.371  1.00  0.00     0.010 A 
ATOM     13  C   UNL     1      98.623 106.057  90.343  1.00  0.00     0.009 A 
ATOM     14  C   UNL     1      94.910 106.444  90.826  1.00  0.00    -0.020 A 
ATOM     15  C   UNL     1      96.166 105.652  89.096  1.00  0.00     0.046 A 
ATOM     16  C   UNL     1      98.552 105.520  89.049  1.00  0.00     0.003 A 
ATOM     17  C   UNL     1      94.055 106.054  89.821  1.00  0.00     0.087 A 
ATOM     18  N   UNL     1      94.826 105.578  88.779  1.00  0.00    -0.361 N 
ATOM     19  C   UNL     1      97.324 105.304  88.398  1.00  0.00     0.027 A 
ATOM     20  C   UNL     1      96.539 109.672  94.082  1.00  0.00     0.106 C 
ATOM     21  H   UNL     1      94.463 105.226  87.904  1.00  0.00     0.166 HD
ENDBRANCH   3   4
BRANCH   2  22
ATOM     22  C   UNL     1      99.648 104.702  97.387  1.00  0.00     0.116 C 
ATOM     23  C   UNL     1     100.874 103.853  97.082  1.00  0.00     0.027 C 
ENDBRANCH   2  22
BRANCH   2  24
ATOM     24  C   UNL     1     100.512 106.770  96.289  1.00  0.00     0.116 C 
ATOM     25  C   UNL     1     100.440 107.828  97.383  1.00  0.00     0.027 C 
ENDBRANCH   2  24
TORSDOF 3
ENDMDL
MODEL 5
REMARK VINA RESULT:    -7.675      3.348      6.985
REMARK INTER + INTRA:          -9.568
REMARK INTER:                  -9.063
REMARK INTRA:                  -0.506
REMARK UNBOUND:                -0.548
REMARK SMILES CCN(CC)C(=O)[C@@H]1C=C2c3cccc4[nH]cc(c34)C[C@H]2N(C)C1
REMARK SMILES IDX 7 1 3 2 6 3 8 4 24 5 9 6 22 7 10 8 21 9 11 10 20 11 19 12
REMARK SMILES IDX 12 13 18 14 15 15 13 16 17 17 16 18 14 19 23 20 2 22 1 23
REMARK SMILES IDX 4 24 5 25
REMARK H PARENT 16 21
ROOT
ATOM      1  O   UNL     1      93.508 113.956  94.020  1.00  0.00    -0.274 OA
ATOM      2  N   UNL     1      93.868 116.052  94.859  1.00  0.00    -0.343 N 
ATOM      3  C   UNL     1      94.215 114.709  94.704  1.00  0.00     0.230 C 
ENDROOT
BRANCH   3   4
ATOM      4  C   UNL     1      95.469 114.103  95.361  1.00  0.00     0.116 C 
ATOM      5  C   UNL     1      96.547 113.737  94.323  1.00  0.00     0.102 C 
ATOM      6  C   UNL     1      95.147 112.985  96.318  1.00  0.00    -0.007 C 
ATOM      7  N   UNL     1      97.699 112.992  94.869  1.00  0.00    -0.298 NA
ATOM      8  C   UNL     1      95.943 111.904  96.397  1.00  0.00    -0.026 C 
ATOM      9  C   UNL     1      97.268 111.769  95.596  1.00  0.00     0.091 C 
ATOM     10  C   UNL     1      95.534 110.696  97.144  1.00  0.00    -0.011 A 
ATOM     11  C   UNL     1      97.249 110.528  94.628  1.00  0.00     0.061 C 
ATOM     12  C   UNL     1      95.976 109.506  96.541  1.00  0.00     0.010 A 
ATOM     13  C   UNL     1      94.761 110.593  98.301  1.00  0.00     0.009 A 
ATOM     14  C   UNL     1      96.763 109.325  95.376  1.00  0.00    -0.020 A 
ATOM     15  C   UNL     1      95.664 108.265  97.068  1.00  0.00     0.046 A 
ATOM     16  C   UNL     1      94.453 109.331  98.831  1.00  0.00     0.003 A 
ATOM     17  C   UNL     1      96.916 107.969  95.201  1.00  0.00     0.087 A 
ATOM     18  N   UNL     1      96.248 107.338  96.231  1.00  0.00    -0.361 N 
ATOM     19  C   UNL     1      94.895 108.140  98.227  1.00  0.00     0.027 A 
ATOM     20  C   UNL     1      98.524 113.848  95.726  1.00  0.00     0.106 C 
ATOM     21  H   UNL     1      96.195 106.337  96.359  1.00  0.00     0.166 HD
ENDBRANCH   3   4
BRANCH   2  22
ATOM     22  C   UNL     1      92.688 116.514  94.117  1.00  0.00     0.116 C 
ATOM     23  C   UNL     1      93.064 117.268  92.849  1.00  0.00     0.027 C 
ENDBRANCH   2  22
BRANCH   2  24
ATOM     24  C   UNL     1      94.687 117.094  95.494  1.00  0.00     0.116 C 
ATOM     25  C   UNL     1      94.389 117.261  96.978  1.00  0.00     0.027 C 
ENDBRANCH   2  24
TORSDOF 3
ENDMDL
MODEL 6
REMARK VINA RESULT:    -7.630      2.518      6.497
REMARK INTER + INTRA:          -9.516
REMARK INTER:                  -9.327
REMARK INTRA:                  -0.189
REMARK UNBOUND:                -0.548
REMARK SMILES CCN(CC)C(=O)[C@@H]1C=C2c3cccc4[nH]cc(c34)C[C@H]2N(C)C1
REMARK SMILES IDX 7 1 3 2 6 3 8 4 24 5 9 6 22 7 10 8 21 9 11 10 20 11 19 12
REMARK SMILES IDX 12 13 18 14 15 15 13 16 17 17 16 18 14 19 23 20 2 22 1 23
REMARK SMILES IDX 4 24 5 25
REMARK H PARENT 16 21
ROOT
ATOM      1  O   UNL     1      95.622 110.306  95.081  1.00  0.00    -0.274 OA
ATOM      2  N   UNL     1      95.635 108.984  96.946  1.00  0.00    -0.343 N 
ATOM      3  C   UNL     1      95.997 109.259  95.627  1.00  0.00     0.230 C 
ENDROOT
BRANCH   3   4
ATOM      4  C   UNL     1      96.864 108.297  94.794  1.00  0.00     0.116 C 
ATOM      5  C   UNL     1      96.068 107.066  94.317  1.00  0.00     0.102 C 
ATOM      6  C   UNL     1      98.166 107.949  95.467  1.00  0.00    -0.007 C 
ATOM      7  N   UNL     1      96.883 106.021  93.664  1.00  0.00    -0.298 NA
ATOM      8  C   UNL     1      98.669 106.704  95.381  1.00  0.00    -0.026 C 
ATOM      9  C   UNL     1      98.010 105.583  94.529  1.00  0.00     0.091 C 
ATOM     10  C   UNL     1      99.809 106.271  96.215  1.00  0.00    -0.011 A 
ATOM     11  C   UNL     1      97.586 104.348  95.406  1.00  0.00     0.061 C 
ATOM     12  C   UNL     1      99.714 104.927  96.614  1.00  0.00     0.010 A 
ATOM     13  C   UNL     1     100.900 107.012  96.672  1.00  0.00     0.009 A 
ATOM     14  C   UNL     1      98.724 103.963  96.301  1.00  0.00    -0.020 A 
ATOM     15  C   UNL     1     100.666 104.343  97.432  1.00  0.00     0.046 A 
ATOM     16  C   UNL     1     101.863 106.411  97.497  1.00  0.00     0.003 A 
ATOM     17  C   UNL     1      99.081 102.798  96.940  1.00  0.00     0.087 A 
ATOM     18  N   UNL     1     100.257 103.039  97.619  1.00  0.00    -0.361 N 
ATOM     19  C   UNL     1     101.767 105.066  97.896  1.00  0.00     0.027 A 
ATOM     20  C   UNL     1      97.369 106.470  92.356  1.00  0.00     0.106 C 
ATOM     21  H   UNL     1     100.755 102.357  98.175  1.00  0.00     0.166 HD
ENDBRANCH   3   4
BRANCH   2  22
ATOM     22  C   UNL     1      94.869 110.022  97.646  1.00  0.00     0.116 C 
ATOM     23  C   UNL     1      93.712 109.444  98.448  1.00  0.00     0.027 C 
ENDBRANCH   2  22
BRANCH   2  24
ATOM     24  C   UNL     1      96.137 107.876  97.772  1.00  0.00     0.116 C 
ATOM     25  C   UNL     1      97.132 108.332  98.832  1.00  0.00     0.027 C 
ENDBRANCH   2  24
TORSDOF 3
ENDMDL
MODEL 7
REMARK VINA RESULT:    -7.614      3.678      6.008
REMARK INTER + INTRA:          -9.497
REMARK INTER:                  -9.262
REMARK INTRA:                  -0.235
REMARK UNBOUND:                -0.548
REMARK SMILES CCN(CC)C(=O)[C@@H]1C=C2c3cccc4[nH]cc(c34)C[C@H]2N(C)C1
REMARK SMILES IDX 7 1 3 2 6 3 8 4 24 5 9 6 22 7 10 8 21 9 11 10 20 11 19 12
REMARK SMILES IDX 12 13 18 14 15 15 13 16 17 17 16 18 14 19 23 20 2 22 1 23
REMARK SMILES IDX 4 24 5 25
REMARK H PARENT 16 21
ROOT
ATOM      1  O   UNL     1      95.904 106.311  95.583  1.00  0.00    -0.274 OA
ATOM      2  N   UNL     1      96.880 107.043  93.649  1.00  0.00    -0.343 N 
ATOM      3  C   UNL     1      96.807 106.181  94.745  1.00  0.00     0.230 C 
ENDROOT
BRANCH   3   4
ATOM      4  C   UNL     1      97.823 105.046  94.967  1.00  0.00     0.116 C 
ATOM      5  C   UNL     1      97.190 103.834  95.677  1.00  0.00     0.102 C 
ATOM      6  C   UNL     1      99.102 105.520  95.607  1.00  0.00    -0.007 C 
ATOM      7  N   UNL     1      98.150 102.784  96.076  1.00  0.00    -0.298 NA
ATOM      8  C   UNL     1      99.731 104.760  96.521  1.00  0.00    -0.026 C 
ATOM      9  C   UNL     1      99.250 103.334  96.911  1.00  0.00     0.091 C 
ATOM     10  C   UNL     1     100.846 105.291  97.333  1.00  0.00    -0.011 A 
ATOM     11  C   UNL     1      98.890 103.230  98.439  1.00  0.00     0.061 C 
ATOM     12  C   UNL     1     100.857 104.783  98.643  1.00  0.00     0.010 A 
ATOM     13  C   UNL     1     101.822 106.226  96.987  1.00  0.00     0.009 A 
ATOM     14  C   UNL     1      99.993 103.837  99.249  1.00  0.00    -0.020 A 
ATOM     15  C   UNL     1     101.801 105.187  99.571  1.00  0.00     0.046 A 
ATOM     16  C   UNL     1     102.779 106.627  97.932  1.00  0.00     0.003 A 
ATOM     17  C   UNL     1     100.418 103.680 100.548  1.00  0.00     0.087 A 
ATOM     18  N   UNL     1     101.513 104.500 100.731  1.00  0.00    -0.361 N 
ATOM     19  C   UNL     1     102.789 106.118  99.243  1.00  0.00     0.027 A 
ATOM     20  C   UNL     1      98.681 102.080  94.905  1.00  0.00     0.106 C 
ATOM     21  H   UNL     1     102.035 104.586 101.592  1.00  0.00     0.166 HD
ENDBRANCH   3   4
BRANCH   2  22
ATOM     22  C   UNL     1      95.804 108.034  93.522  1.00  0.00     0.116 C 
ATOM     23  C   UNL     1      94.833 107.688  92.401  1.00  0.00     0.027 C 
ENDBRANCH   2  22
BRANCH   2  24
ATOM     24  C   UNL     1      97.784 106.909  92.497  1.00  0.00     0.116 C 
ATOM     25  C   UNL     1      97.480 105.684  91.646  1.00  0.00     0.027 C 
ENDBRANCH   2  24
TORSDOF 3
ENDMDL
MODEL 8
REMARK VINA RESULT:    -7.597      2.434      4.389
REMARK INTER + INTRA:          -9.477
REMARK INTER:                  -9.035
REMARK INTRA:                  -0.443
REMARK UNBOUND:                -0.548
REMARK SMILES CCN(CC)C(=O)[C@@H]1C=C2c3cccc4[nH]cc(c34)C[C@H]2N(C)C1
REMARK SMILES IDX 7 1 3 2 6 3 8 4 24 5 9 6 22 7 10 8 21 9 11 10 20 11 19 12
REMARK SMILES IDX 12 13 18 14 15 15 13 16 17 17 16 18 14 19 23 20 2 22 1 23
REMARK SMILES IDX 4 24 5 25
REMARK H PARENT 16 21
ROOT
ATOM      1  O   UNL     1      95.585 108.438  92.937  1.00  0.00    -0.274 OA
ATOM      2  N   UNL     1      97.361 107.298  93.817  1.00  0.00    -0.343 N 
ATOM      3  C   UNL     1      96.397 108.306  93.864  1.00  0.00     0.230 C 
ENDROOT
BRANCH   3   4
ATOM      4  C   UNL     1      96.289 109.287  95.045  1.00  0.00     0.116 C 
ATOM      5  C   UNL     1      94.832 109.484  95.505  1.00  0.00     0.102 C 
ATOM      6  C   UNL     1      97.026 110.579  94.804  1.00  0.00    -0.007 C 
ATOM      7  N   UNL     1      94.643 110.544  96.516  1.00  0.00    -0.298 NA
ATOM      8  C   UNL     1      96.514 111.747  95.231  1.00  0.00    -0.026 C 
ATOM      9  C   UNL     1      95.204 111.843  96.062  1.00  0.00     0.091 C 
ATOM     10  C   UNL     1      97.086 113.042  94.808  1.00  0.00    -0.011 A 
ATOM     11  C   UNL     1      94.103 112.697  95.331  1.00  0.00     0.061 C 
ATOM     12  C   UNL     1      96.111 114.040  94.635  1.00  0.00     0.010 A 
ATOM     13  C   UNL     1      98.413 113.372  94.529  1.00  0.00     0.009 A 
ATOM     14  C   UNL     1      94.711 113.975  94.842  1.00  0.00    -0.020 A 
ATOM     15  C   UNL     1      96.442 115.313  94.206  1.00  0.00     0.046 A 
ATOM     16  C   UNL     1      98.741 114.667  94.099  1.00  0.00     0.003 A 
ATOM     17  C   UNL     1      94.200 115.213  94.528  1.00  0.00     0.087 A 
ATOM     18  N   UNL     1      95.257 116.014  94.146  1.00  0.00    -0.361 N 
ATOM     19  C   UNL     1      97.765 115.664  93.926  1.00  0.00     0.027 A 
ATOM     20  C   UNL     1      95.212 110.149  97.808  1.00  0.00     0.106 C 
ATOM     21  H   UNL     1      95.177 116.982  93.864  1.00  0.00     0.166 HD
ENDBRANCH   3   4
BRANCH   2  22
ATOM     22  C   UNL     1      97.302 106.388  92.667  1.00  0.00     0.116 C 
ATOM     23  C   UNL     1      98.204 106.839  91.527  1.00  0.00     0.027 C 
ENDBRANCH   2  22
BRANCH   2  24
ATOM     24  C   UNL     1      98.272 106.916  94.905  1.00  0.00     0.116 C 
ATOM     25  C   UNL     1      98.194 105.434  95.250  1.00  0.00     0.027 C 
ENDBRANCH   2  24
TORSDOF 3
ENDMDL
MODEL 9
REMARK VINA RESULT:    -7.551      5.361      7.008
REMARK INTER + INTRA:          -9.422
REMARK INTER:                  -9.000
REMARK INTRA:                  -0.422
REMARK UNBOUND:                -0.548
REMARK SMILES CCN(CC)C(=O)[C@@H]1C=C2c3cccc4[nH]cc(c34)C[C@H]2N(C)C1
REMARK SMILES IDX 7 1 3 2 6 3 8 4 24 5 9 6 22 7 10 8 21 9 11 10 20 11 19 12
REMARK SMILES IDX 12 13 18 14 15 15 13 16 17 17 16 18 14 19 23 20 2 22 1 23
REMARK SMILES IDX 4 24 5 25
REMARK H PARENT 16 21
ROOT
ATOM      1  O   UNL     1      99.530 105.519 101.578  1.00  0.00    -0.274 OA
ATOM      2  N   UNL     1      99.894 103.621 100.357  1.00  0.00    -0.343 N 
ATOM      3  C   UNL     1      99.695 104.998 100.466  1.00  0.00     0.230 C 
ENDROOT
BRANCH   3   4
ATOM      4  C   UNL     1      99.671 105.925  99.237  1.00  0.00     0.116 C 
ATOM      5  C   UNL     1     100.961 106.758  99.115  1.00  0.00     0.102 C 
ATOM      6  C   UNL     1      98.412 106.747  99.147  1.00  0.00    -0.007 C 
ATOM      7  N   UNL     1     100.929 107.792  98.060  1.00  0.00    -0.298 NA
ATOM      8  C   UNL     1      98.456 108.021  98.720  1.00  0.00    -0.026 C 
ATOM      9  C   UNL     1      99.761 108.699  98.216  1.00  0.00     0.091 C 
ATOM     10  C   UNL     1      97.289 108.919  98.843  1.00  0.00    -0.011 A 
ATOM     11  C   UNL     1     100.147 109.955  99.081  1.00  0.00     0.061 C 
ATOM     12  C   UNL     1      97.650 110.248  99.124  1.00  0.00     0.010 A 
ATOM     13  C   UNL     1      95.930 108.616  98.761  1.00  0.00     0.009 A 
ATOM     14  C   UNL     1      98.939 110.821  99.261  1.00  0.00    -0.020 A 
ATOM     15  C   UNL     1      96.698 111.235  99.312  1.00  0.00     0.046 A 
ATOM     16  C   UNL     1      94.971 109.623  98.949  1.00  0.00     0.003 A 
ATOM     17  C   UNL     1      98.758 112.156  99.541  1.00  0.00     0.087 A 
ATOM     18  N   UNL     1      97.399 112.395  99.567  1.00  0.00    -0.361 N 
ATOM     19  C   UNL     1      95.333 110.953  99.230  1.00  0.00     0.027 A 
ATOM     20  C   UNL     1     100.950 107.186  96.725  1.00  0.00     0.106 C 
ATOM     21  H   UNL     1      96.972 113.294  99.746  1.00  0.00     0.166 HD
ENDBRANCH   3   4
BRANCH   2  22
ATOM     22  C   UNL     1      99.969 102.868 101.615  1.00  0.00     0.116 C 
ATOM     23  C   UNL     1      98.776 101.941 101.804  1.00  0.00     0.027 C 
ENDBRANCH   2  22
BRANCH   2  24
ATOM     24  C   UNL     1     100.268 102.891  99.137  1.00  0.00     0.116 C 
ATOM     25  C   UNL     1      99.104 102.717  98.170  1.00  0.00     0.027 C 
ENDBRANCH   2  24
TORSDOF 3
ENDMDL
MODEL 10
REMARK VINA RESULT:    -7.488      2.334      5.436
REMARK INTER + INTRA:          -9.349
REMARK INTER:                  -9.256
REMARK INTRA:                  -0.092
REMARK UNBOUND:                -0.548
REMARK SMILES CCN(CC)C(=O)[C@@H]1C=C2c3cccc4[nH]cc(c34)C[C@H]2N(C)C1
REMARK SMILES IDX 7 1 3 2 6 3 8 4 24 5 9 6 22 7 10 8 21 9 11 10 20 11 19 12
REMARK SMILES IDX 12 13 18 14 15 15 13 16 17 17 16 18 14 19 23 20 2 22 1 23
REMARK SMILES IDX 4 24 5 25
REMARK H PARENT 16 21
ROOT
ATOM      1  O   UNL     1      94.755 108.894  93.246  1.00  0.00    -0.274 OA
ATOM      2  N   UNL     1      96.621 107.776  92.540  1.00  0.00    -0.343 N 
ATOM      3  C   UNL     1      95.819 108.331  93.539  1.00  0.00     0.230 C 
ENDROOT
BRANCH   3   4
ATOM      4  C   UNL     1      96.205 108.275  95.028  1.00  0.00     0.116 C 
ATOM      5  C   UNL     1      97.193 109.392  95.414  1.00  0.00     0.102 C 
ATOM      6  C   UNL     1      96.644 106.903  95.470  1.00  0.00    -0.007 C 
ATOM      7  N   UNL     1      97.737 109.289  96.783  1.00  0.00    -0.298 NA
ATOM      8  C   UNL     1      97.652 106.758  96.348  1.00  0.00    -0.026 C 
ATOM      9  C   UNL     1      98.363 107.962  97.026  1.00  0.00     0.091 C 
ATOM     10  C   UNL     1      98.259 105.437  96.618  1.00  0.00    -0.011 A 
ATOM     11  C   UNL     1      99.900 108.006  96.691  1.00  0.00     0.061 C 
ATOM     12  C   UNL     1      99.642 105.510  96.852  1.00  0.00     0.010 A 
ATOM     13  C   UNL     1      97.661 104.177  96.626  1.00  0.00     0.009 A 
ATOM     14  C   UNL     1     100.489 106.645  96.898  1.00  0.00    -0.020 A 
ATOM     15  C   UNL     1     100.400 104.376  97.088  1.00  0.00     0.046 A 
ATOM     16  C   UNL     1      98.435 103.032  96.871  1.00  0.00     0.003 A 
ATOM     17  C   UNL     1     101.761 106.188  97.155  1.00  0.00     0.087 A 
ATOM     18  N   UNL     1     101.695 104.814  97.269  1.00  0.00    -0.361 N 
ATOM     19  C   UNL     1      99.820 103.105  97.105  1.00  0.00     0.027 A 
ATOM     20  C   UNL     1      96.705 109.574  97.785  1.00  0.00     0.106 C 
ATOM     21  H   UNL     1     102.482 104.210  97.462  1.00  0.00     0.166 HD
ENDBRANCH   3   4
BRANCH   2  22
ATOM     22  C   UNL     1      96.096 107.836  91.170  1.00  0.00     0.116 C 
ATOM     23  C   UNL     1      97.067 108.509  90.210  1.00  0.00     0.027 C 
ENDBRANCH   2  22
BRANCH   2  24
ATOM     24  C   UNL     1      97.812 106.940  92.746  1.00  0.00     0.116 C 
ATOM     25  C   UNL     1      97.654 105.535  92.179  1.00  0.00     0.027 C 
ENDBRANCH   2  24
TORSDOF 3
ENDMDL
MODEL 11
REMARK VINA RESULT:    -7.439      2.651      4.888
REMARK INTER + INTRA:          -9.292
REMARK INTER:                  -8.754
REMARK INTRA:                  -0.537
REMARK UNBOUND:                -0.548
REMARK SMILES CCN(CC)C(=O)[C@@H]1C=C2c3cccc4[nH]cc(c34)C[C@H]2N(C)C1
REMARK SMILES IDX 7 1 3 2 6 3 8 4 24 5 9 6 22 7 10 8 21 9 11 10 20 11 19 12
REMARK SMILES IDX 12 13 18 14 15 15 13 16 17 17 16 18 14 19 23 20 2 22 1 23
REMARK SMILES IDX 4 24 5 25
REMARK H PARENT 16 21
ROOT
ATOM      1  O   UNL     1      96.586 108.371  93.677  1.00  0.00    -0.274 OA
ATOM      2  N   UNL     1      97.962 107.358  95.196  1.00  0.00    -0.343 N 
ATOM      3  C   UNL     1      97.061 108.356  94.821  1.00  0.00     0.230 C 
ENDROOT
BRANCH   3   4
ATOM      4  C   UNL     1      96.617 109.468  95.788  1.00  0.00     0.116 C 
ATOM      5  C   UNL     1      95.086 109.513  95.957  1.00  0.00     0.102 C 
ATOM      6  C   UNL     1      97.227 110.807  95.463  1.00  0.00    -0.007 C 
ATOM      7  N   UNL     1      94.584 110.666  96.732  1.00  0.00    -0.298 NA
ATOM      8  C   UNL     1      96.509 111.936  95.598  1.00  0.00    -0.026 C 
ATOM      9  C   UNL     1      95.063 111.956  96.169  1.00  0.00     0.091 C 
ATOM     10  C   UNL     1      96.993 113.228  95.068  1.00  0.00    -0.011 A 
ATOM     11  C   UNL     1      94.026 112.526  95.132  1.00  0.00     0.061 C 
ATOM     12  C   UNL     1      95.957 114.037  94.570  1.00  0.00     0.010 A 
ATOM     13  C   UNL     1      98.300 113.706  94.965  1.00  0.00     0.009 A 
ATOM     14  C   UNL     1      94.560 113.797  94.547  1.00  0.00    -0.020 A 
ATOM     15  C   UNL     1      96.209 115.271  93.997  1.00  0.00     0.046 A 
ATOM     16  C   UNL     1      98.547 114.960  94.388  1.00  0.00     0.003 A 
ATOM     17  C   UNL     1      93.975 114.890  93.950  1.00  0.00     0.087 A 
ATOM     18  N   UNL     1      94.982 115.775  93.624  1.00  0.00    -0.361 N 
ATOM     19  C   UNL     1      97.510 115.769  93.890  1.00  0.00     0.027 A 
ATOM     20  C   UNL     1      94.942 110.546  98.149  1.00  0.00     0.106 C 
ATOM     21  H   UNL     1      94.843 116.671  93.176  1.00  0.00     0.166 HD
ENDBRANCH   3   4
BRANCH   2  22
ATOM     22  C   UNL     1      98.240 106.318  94.198  1.00  0.00     0.116 C 
ATOM     23  C   UNL     1      97.946 104.920  94.726  1.00  0.00     0.027 C 
ENDBRANCH   2  22
BRANCH   2  24
ATOM     24  C   UNL     1      98.473 107.114  96.553  1.00  0.00     0.116 C 
ATOM     25  C   UNL     1      99.878 107.662  96.764  1.00  0.00     0.027 C 
ENDBRANCH   2  24
TORSDOF 3
ENDMDL
MODEL 12
REMARK VINA RESULT:    -7.428      2.477      4.850
REMARK INTER + INTRA:          -9.278
REMARK INTER:                  -8.795
REMARK INTRA:                  -0.483
REMARK UNBOUND:                -0.548
REMARK SMILES CCN(CC)C(=O)[C@@H]1C=C2c3cccc4[nH]cc(c34)C[C@H]2N(C)C1
REMARK SMILES IDX 7 1 3 2 6 3 8 4 24 5 9 6 22 7 10 8 21 9 11 10 20 11 19 12
REMARK SMILES IDX 12 13 18 14 15 15 13 16 17 17 16 18 14 19 23 20 2 22 1 23
REMARK SMILES IDX 4 24 5 25
REMARK H PARENT 16 21
ROOT
ATOM      1  O   UNL     1      99.964 106.041  96.210  1.00  0.00    -0.274 OA
ATOM      2  N   UNL     1      99.059 103.942  96.162  1.00  0.00    -0.343 N 
ATOM      3  C   UNL     1      99.004 105.315  95.917  1.00  0.00     0.230 C 
ENDROOT
BRANCH   3   4
ATOM      4  C   UNL     1      97.772 105.987  95.283  1.00  0.00     0.116 C 
ATOM      5  C   UNL     1      98.146 106.840  94.055  1.00  0.00     0.102 C 
ATOM      6  C   UNL     1      96.920 106.718  96.288  1.00  0.00    -0.007 C 
ATOM      7  N   UNL     1      97.039 107.650  93.508  1.00  0.00    -0.298 NA
ATOM      8  C   UNL     1      96.339 107.889  95.969  1.00  0.00    -0.026 C 
ATOM      9  C   UNL     1      96.425 108.515  94.549  1.00  0.00     0.091 C 
ATOM     10  C   UNL     1      95.700 108.740  96.994  1.00  0.00    -0.011 A 
ATOM     11  C   UNL     1      97.113 109.930  94.569  1.00  0.00     0.061 C 
ATOM     12  C   UNL     1      95.865 110.113  96.744  1.00  0.00     0.010 A 
ATOM     13  C   UNL     1      95.018 108.364  98.152  1.00  0.00     0.009 A 
ATOM     14  C   UNL     1      96.508 110.759  95.659  1.00  0.00    -0.020 A 
ATOM     15  C   UNL     1      95.371 111.073  97.609  1.00  0.00     0.046 A 
ATOM     16  C   UNL     1      94.516 109.345  99.022  1.00  0.00     0.003 A 
ATOM     17  C   UNL     1      96.405 112.113  95.880  1.00  0.00     0.087 A 
ATOM     18  N   UNL     1      95.713 112.291  97.061  1.00  0.00    -0.361 N 
ATOM     19  C   UNL     1      94.682 110.719  98.772  1.00  0.00     0.027 A 
ATOM     20  C   UNL     1      96.029 106.802  92.868  1.00  0.00     0.106 C 
ATOM     21  H   UNL     1      95.486 113.187  97.470  1.00  0.00     0.166 HD
ENDBRANCH   3   4
BRANCH   2  22
ATOM     22  C   UNL     1     100.322 103.423  96.702  1.00  0.00     0.116 C 
ATOM     23  C   UNL     1     100.203 103.026  98.167  1.00  0.00     0.027 C 
ENDBRANCH   2  22
BRANCH   2  24
ATOM     24  C   UNL     1      98.078 102.940  95.721  1.00  0.00     0.116 C 
ATOM     25  C   UNL     1      98.606 102.045  94.607  1.00  0.00     0.027 C 
ENDBRANCH   2  24
TORSDOF 3
ENDMDL
MODEL 13
REMARK VINA RESULT:    -7.366      2.224      3.819
REMARK INTER + INTRA:          -9.205
REMARK INTER:                  -8.979
REMARK INTRA:                  -0.226
REMARK UNBOUND:                -0.548
REMARK SMILES CCN(CC)C(=O)[C@@H]1C=C2c3cccc4[nH]cc(c34)C[C@H]2N(C)C1
REMARK SMILES IDX 7 1 3 2 6 3 8 4 24 5 9 6 22 7 10 8 21 9 11 10 20 11 19 12
REMARK SMILES IDX 12 13 18 14 15 15 13 16 17 17 16 18 14 19 23 20 2 22 1 23
REMARK SMILES IDX 4 24 5 25
REMARK H PARENT 16 21
ROOT
ATOM      1  O   UNL     1      98.377 106.514  95.597  1.00  0.00    -0.274 OA
ATOM      2  N   UNL     1      97.287 107.477  93.832  1.00  0.00    -0.343 N 
ATOM      3  C   UNL     1      97.654 107.430  95.178  1.00  0.00     0.230 C 
ENDROOT
BRANCH   3   4
ATOM      4  C   UNL     1      97.192 108.490  96.194  1.00  0.00     0.116 C 
ATOM      5  C   UNL     1      95.686 108.383  96.499  1.00  0.00     0.102 C 
ATOM      6  C   UNL     1      97.637 109.883  95.832  1.00  0.00    -0.007 C 
ATOM      7  N   UNL     1      95.146 109.479  97.330  1.00  0.00    -0.298 NA
ATOM      8  C   UNL     1      96.827 110.936  96.044  1.00  0.00    -0.026 C 
ATOM      9  C   UNL     1      95.444 110.811  96.742  1.00  0.00     0.091 C 
ATOM     10  C   UNL     1      97.132 112.271  95.488  1.00  0.00    -0.011 A 
ATOM     11  C   UNL     1      94.267 111.280  95.808  1.00  0.00     0.061 C 
ATOM     12  C   UNL     1      95.981 112.975  95.095  1.00  0.00     0.010 A 
ATOM     13  C   UNL     1      98.372 112.876  95.276  1.00  0.00     0.009 A 
ATOM     14  C   UNL     1      94.618 112.599  95.194  1.00  0.00    -0.020 A 
ATOM     15  C   UNL     1      96.059 114.230  94.517  1.00  0.00     0.046 A 
ATOM     16  C   UNL     1      98.442 114.150  94.693  1.00  0.00     0.003 A 
ATOM     17  C   UNL     1      93.878 113.631  94.665  1.00  0.00     0.087 A 
ATOM     18  N   UNL     1      94.760 114.612  94.260  1.00  0.00    -0.361 N 
ATOM     19  C   UNL     1      97.290 114.854  94.300  1.00  0.00     0.027 A 
ATOM     20  C   UNL     1      95.639 109.390  98.707  1.00  0.00     0.106 C 
ATOM     21  H   UNL     1      94.494 115.491  93.837  1.00  0.00     0.166 HD
ENDBRANCH   3   4
BRANCH   2  22
ATOM     22  C   UNL     1      97.859 106.444  92.960  1.00  0.00     0.116 C 
ATOM     23  C   UNL     1      97.981 106.912  91.517  1.00  0.00     0.027 C 
ENDBRANCH   2  22
BRANCH   2  24
ATOM     24  C   UNL     1      96.583 108.580  93.162  1.00  0.00     0.116 C 
ATOM     25  C   UNL     1      95.090 108.323  93.008  1.00  0.00     0.027 C 
ENDBRANCH   2  24
TORSDOF 3
ENDMDL
MODEL 14
REMARK VINA RESULT:    -7.365      4.158      7.566
REMARK INTER + INTRA:          -9.204
REMARK INTER:                  -8.796
REMARK INTRA:                  -0.408
REMARK UNBOUND:                -0.548
REMARK SMILES CCN(CC)C(=O)[C@@H]1C=C2c3cccc4[nH]cc(c34)C[C@H]2N(C)C1
REMARK SMILES IDX 7 1 3 2 6 3 8 4 24 5 9 6 22 7 10 8 21 9 11 10 20 11 19 12
REMARK SMILES IDX 12 13 18 14 15 15 13 16 17 17 16 18 14 19 23 20 2 22 1 23
REMARK SMILES IDX 4 24 5 25
REMARK H PARENT 16 21
ROOT
ATOM      1  O   UNL     1      95.960 107.462  96.642  1.00  0.00    -0.274 OA
ATOM      2  N   UNL     1      96.393 109.463  97.662  1.00  0.00    -0.343 N 
ATOM      3  C   UNL     1      96.785 108.211  97.184  1.00  0.00     0.230 C 
ENDROOT
BRANCH   3   4
ATOM      4  C   UNL     1      98.234 107.704  97.301  1.00  0.00     0.116 C 
ATOM      5  C   UNL     1      98.643 106.835  96.096  1.00  0.00     0.102 C 
ATOM      6  C   UNL     1      98.526 107.063  98.633  1.00  0.00    -0.007 C 
ATOM      7  N   UNL     1      99.958 106.175  96.230  1.00  0.00    -0.298 NA
ATOM      8  C   UNL     1      99.317 105.978  98.711  1.00  0.00    -0.026 C 
ATOM      9  C   UNL     1     100.043 105.371  97.478  1.00  0.00     0.091 C 
ATOM     10  C   UNL     1      99.430 105.192  99.957  1.00  0.00    -0.011 A 
ATOM     11  C   UNL     1      99.607 103.883  97.209  1.00  0.00     0.061 C 
ATOM     12  C   UNL     1      99.573 103.814  99.722  1.00  0.00     0.010 A 
ATOM     13  C   UNL     1      99.373 105.625 101.282  1.00  0.00     0.009 A 
ATOM     14  C   UNL     1      99.656 103.114  98.492  1.00  0.00    -0.020 A 
ATOM     15  C   UNL     1      99.659 102.904 100.762  1.00  0.00     0.046 A 
ATOM     16  C   UNL     1      99.465 104.698 102.331  1.00  0.00     0.003 A 
ATOM     17  C   UNL     1      99.784 101.779  98.798  1.00  0.00     0.087 A 
ATOM     18  N   UNL     1      99.786 101.664 100.173  1.00  0.00    -0.361 N 
ATOM     19  C   UNL     1      99.608 103.318 102.095  1.00  0.00     0.027 A 
ATOM     20  C   UNL     1     101.049 107.151  96.158  1.00  0.00     0.106 C 
ATOM     21  H   UNL     1      99.872 100.795 100.682  1.00  0.00     0.166 HD
ENDBRANCH   3   4
BRANCH   2  22
ATOM     22  C   UNL     1      94.998 109.849  97.417  1.00  0.00     0.116 C 
ATOM     23  C   UNL     1      94.067 109.381  98.527  1.00  0.00     0.027 C 
ENDBRANCH   2  22
BRANCH   2  24
ATOM     24  C   UNL     1      97.283 110.517  98.169  1.00  0.00     0.116 C 
ATOM     25  C   UNL     1      97.069 110.812  99.648  1.00  0.00     0.027 C 
ENDBRANCH   2  24
TORSDOF 3
ENDMDL
MODEL 15
REMARK VINA RESULT:    -7.350      3.455      6.680
REMARK INTER + INTRA:          -9.187
REMARK INTER:                  -9.093
REMARK INTRA:                  -0.094
REMARK UNBOUND:                -0.548
REMARK SMILES CCN(CC)C(=O)[C@@H]1C=C2c3cccc4[nH]cc(c34)C[C@H]2N(C)C1
REMARK SMILES IDX 7 1 3 2 6 3 8 4 24 5 9 6 22 7 10 8 21 9 11 10 20 11 19 12
REMARK SMILES IDX 12 13 18 14 15 15 13 16 17 17 16 18 14 19 23 20 2 22 1 23
REMARK SMILES IDX 4 24 5 25
REMARK H PARENT 16 21
ROOT
ATOM      1  O   UNL     1      98.521 103.776  97.527  1.00  0.00    -0.274 OA
ATOM      2  N   UNL     1      99.890 104.210  99.306  1.00  0.00    -0.343 N 
ATOM      3  C   UNL     1      99.275 104.571  98.107  1.00  0.00     0.230 C 
ENDROOT
BRANCH   3   4
ATOM      4  C   UNL     1      99.494 105.946  97.451  1.00  0.00     0.116 C 
ATOM      5  C   UNL     1      99.003 107.100  98.346  1.00  0.00     0.102 C 
ATOM      6  C   UNL     1      98.971 106.014  96.040  1.00  0.00    -0.007 C 
ATOM      7  N   UNL     1      99.023 108.430  97.705  1.00  0.00    -0.298 NA
ATOM      8  C   UNL     1      98.377 107.131  95.584  1.00  0.00    -0.026 C 
ATOM      9  C   UNL     1      98.267 108.433  96.425  1.00  0.00     0.091 C 
ATOM     10  C   UNL     1      97.649 107.150  94.298  1.00  0.00    -0.011 A 
ATOM     11  C   UNL     1      96.770 108.855  96.668  1.00  0.00     0.061 C 
ATOM     12  C   UNL     1      96.517 107.982  94.323  1.00  0.00     0.010 A 
ATOM     13  C   UNL     1      97.912 106.442  93.124  1.00  0.00     0.009 A 
ATOM     14  C   UNL     1      96.025 108.800  95.371  1.00  0.00    -0.020 A 
ATOM     15  C   UNL     1      95.682 108.106  93.227  1.00  0.00     0.046 A 
ATOM     16  C   UNL     1      97.063 106.578  92.015  1.00  0.00     0.003 A 
ATOM     17  C   UNL     1      94.885 109.411  94.901  1.00  0.00     0.087 A 
ATOM     18  N   UNL     1      94.688 108.985  93.603  1.00  0.00    -0.361 N 
ATOM     19  C   UNL     1      95.930 107.410  92.042  1.00  0.00     0.027 A 
ATOM     20  C   UNL     1     100.398 108.899  97.504  1.00  0.00     0.106 C 
ATOM     21  H   UNL     1      93.926 109.277  93.007  1.00  0.00     0.166 HD
ENDBRANCH   3   4
BRANCH   2  22
ATOM     22  C   UNL     1      99.534 102.896  99.856  1.00  0.00     0.116 C 
ATOM     23  C   UNL     1      99.466 102.907 101.377  1.00  0.00     0.027 C 
ENDBRANCH   2  22
BRANCH   2  24
ATOM     24  C   UNL     1     100.667 105.096 100.185  1.00  0.00     0.116 C 
ATOM     25  C   UNL     1     102.098 105.299  99.706  1.00  0.00     0.027 C 
ENDBRANCH   2  24
TORSDOF 3
ENDMDL
MODEL 16
REMARK VINA RESULT:    -7.335      2.120      2.621
REMARK INTER + INTRA:          -9.169
REMARK INTER:                  -8.775
REMARK INTRA:                  -0.394
REMARK UNBOUND:                -0.548
REMARK SMILES CCN(CC)C(=O)[C@@H]1C=C2c3cccc4[nH]cc(c34)C[C@H]2N(C)C1
REMARK SMILES IDX 7 1 3 2 6 3 8 4 24 5 9 6 22 7 10 8 21 9 11 10 20 11 19 12
REMARK SMILES IDX 12 13 18 14 15 15 13 16 17 17 16 18 14 19 23 20 2 22 1 23
REMARK SMILES IDX 4 24 5 25
REMARK H PARENT 16 21
ROOT
ATOM      1  O   UNL     1      97.315 108.747  92.631  1.00  0.00    -0.274 OA
ATOM      2  N   UNL     1      97.600 106.770  91.517  1.00  0.00    -0.343 N 
ATOM      3  C   UNL     1      97.489 107.521  92.688  1.00  0.00     0.230 C 
ENDROOT
BRANCH   3   4
ATOM      4  C   UNL     1      97.576 106.882  94.086  1.00  0.00     0.116 C 
ATOM      5  C   UNL     1      96.210 106.358  94.569  1.00  0.00     0.102 C 
ATOM      6  C   UNL     1      98.275 107.760  95.091  1.00  0.00    -0.007 C 
ATOM      7  N   UNL     1      96.189 105.893  95.971  1.00  0.00    -0.298 NA
ATOM      8  C   UNL     1      97.845 107.818  96.364  1.00  0.00    -0.026 C 
ATOM      9  C   UNL     1      96.682 106.940  96.904  1.00  0.00     0.091 C 
ATOM     10  C   UNL     1      98.353 108.837  97.306  1.00  0.00    -0.011 A 
ATOM     11  C   UNL     1      95.486 107.810  97.442  1.00  0.00     0.061 C 
ATOM     12  C   UNL     1      97.370 109.290  98.203  1.00  0.00     0.010 A 
ATOM     13  C   UNL     1      99.622 109.411  97.385  1.00  0.00     0.009 A 
ATOM     14  C   UNL     1      96.019 108.884  98.338  1.00  0.00    -0.020 A 
ATOM     15  C   UNL     1      97.639 110.271  99.141  1.00  0.00     0.046 A 
ATOM     16  C   UNL     1      99.889 110.402  98.342  1.00  0.00     0.003 A 
ATOM     17  C   UNL     1      95.475 109.632  99.356  1.00  0.00     0.087 A 
ATOM     18  N   UNL     1      96.464 110.466  99.835  1.00  0.00    -0.361 N 
ATOM     19  C   UNL     1      98.904 110.855  99.239  1.00  0.00     0.027 A 
ATOM     20  C   UNL     1      96.950 104.650  96.126  1.00  0.00     0.106 C 
ATOM     21  H   UNL     1      96.349 111.127 100.592  1.00  0.00     0.166 HD
ENDBRANCH   3   4
BRANCH   2  22
ATOM     22  C   UNL     1      97.425 107.497  90.254  1.00  0.00     0.116 C 
ATOM     23  C   UNL     1      98.755 107.875  89.617  1.00  0.00     0.027 C 
ENDBRANCH   2  22
BRANCH   2  24
ATOM     24  C   UNL     1      97.640 105.304  91.426  1.00  0.00     0.116 C 
ATOM     25  C   UNL     1      96.880 104.765  90.221  1.00  0.00     0.027 C 
ENDBRANCH   2  24
TORSDOF 3
ENDMDL
MODEL 17
REMARK VINA RESULT:    -7.310      2.915      5.694
REMARK INTER + INTRA:          -9.140
REMARK INTER:                  -9.269
REMARK INTRA:                   0.129
REMARK UNBOUND:                -0.548
REMARK SMILES CCN(CC)C(=O)[C@@H]1C=C2c3cccc4[nH]cc(c34)C[C@H]2N(C)C1
REMARK SMILES IDX 7 1 3 2 6 3 8 4 24 5 9 6 22 7 10 8 21 9 11 10 20 11 19 12
REMARK SMILES IDX 12 13 18 14 15 15 13 16 17 17 16 18 14 19 23 20 2 22 1 23
REMARK SMILES IDX 4 24 5 25
REMARK H PARENT 16 21
ROOT
ATOM      1  O   UNL     1      97.922 104.202  91.697  1.00  0.00    -0.274 OA
ATOM      2  N   UNL     1      97.372 106.141  90.616  1.00  0.00    -0.343 N 
ATOM      3  C   UNL     1      97.555 105.383  91.774  1.00  0.00     0.230 C 
ENDROOT
BRANCH   3   4
ATOM      4  C   UNL     1      97.315 105.960  93.181  1.00  0.00     0.116 C 
ATOM      5  C   UNL     1      97.963 107.347  93.357  1.00  0.00     0.102 C 
ATOM      6  C   UNL     1      97.659 104.990  94.280  1.00  0.00    -0.007 C 
ATOM      7  N   UNL     1      97.920 107.877  94.735  1.00  0.00    -0.298 NA
ATOM      8  C   UNL     1      98.239 105.420  95.415  1.00  0.00    -0.026 C 
ATOM      9  C   UNL     1      98.510 106.922  95.709  1.00  0.00     0.091 C 
ATOM     10  C   UNL     1      98.800 104.475  96.403  1.00  0.00    -0.011 A 
ATOM     11  C   UNL     1     100.042 107.216  95.915  1.00  0.00     0.061 C 
ATOM     12  C   UNL     1      99.962 104.962  97.026  1.00  0.00     0.010 A 
ATOM     13  C   UNL     1      98.362 103.196  96.748  1.00  0.00     0.009 A 
ATOM     14  C   UNL     1     100.616 106.208  96.861  1.00  0.00    -0.020 A 
ATOM     15  C   UNL     1     100.658 104.209  97.956  1.00  0.00     0.046 A 
ATOM     16  C   UNL     1      99.071 102.441  97.695  1.00  0.00     0.003 A 
ATOM     17  C   UNL     1     101.713 106.198  97.691  1.00  0.00     0.087 A 
ATOM     18  N   UNL     1     101.727 104.985  98.349  1.00  0.00    -0.361 N 
ATOM     19  C   UNL     1     100.233 102.929  98.318  1.00  0.00     0.027 A 
ATOM     20  C   UNL     1      96.553 108.241  95.118  1.00  0.00     0.106 C 
ATOM     21  H   UNL     1     102.421 104.702  99.028  1.00  0.00     0.166 HD
ENDBRANCH   3   4
BRANCH   2  22
ATOM     22  C   UNL     1      97.709 105.488  89.345  1.00  0.00     0.116 C 
ATOM     23  C   UNL     1      98.979 106.052  88.726  1.00  0.00     0.027 C 
ENDBRANCH   2  22
BRANCH   2  24
ATOM     24  C   UNL     1      97.106 107.586  90.556  1.00  0.00     0.116 C 
ATOM     25  C   UNL     1      95.655 107.907  90.224  1.00  0.00     0.027 C 
ENDBRANCH   2  24
TORSDOF 3
ENDMDL
MODEL 18
REMARK VINA RESULT:    -7.292      4.168      7.405
REMARK INTER + INTRA:          -9.119
REMARK INTER:                  -8.623
REMARK INTRA:                  -0.495
REMARK UNBOUND:                -0.548
REMARK SMILES CCN(CC)C(=O)[C@@H]1C=C2c3cccc4[nH]cc(c34)C[C@H]2N(C)C1
REMARK SMILES IDX 7 1 3 2 6 3 8 4 24 5 9 6 22 7 10 8 21 9 11 10 20 11 19 12
REMARK SMILES IDX 12 13 18 14 15 15 13 16 17 17 16 18 14 19 23 20 2 22 1 23
REMARK SMILES IDX 4 24 5 25
REMARK H PARENT 16 21
ROOT
ATOM      1  O   UNL     1      95.537 107.825  97.184  1.00  0.00    -0.274 OA
ATOM      2  N   UNL     1      95.392 110.036  97.748  1.00  0.00    -0.343 N 
ATOM      3  C   UNL     1      96.102 108.843  97.608  1.00  0.00     0.230 C 
ENDROOT
BRANCH   3   4
ATOM      4  C   UNL     1      97.595 108.728  97.966  1.00  0.00     0.116 C 
ATOM      5  C   UNL     1      98.492 108.723  96.714  1.00  0.00     0.102 C 
ATOM      6  C   UNL     1      97.885 107.598  98.920  1.00  0.00    -0.007 C 
ATOM      7  N   UNL     1      99.918 108.439  96.978  1.00  0.00    -0.298 NA
ATOM      8  C   UNL     1      99.002 106.861  98.788  1.00  0.00    -0.026 C 
ATOM      9  C   UNL     1     100.095 107.166  97.725  1.00  0.00     0.091 C 
ATOM     10  C   UNL     1      99.198 105.611  99.550  1.00  0.00    -0.011 A 
ATOM     11  C   UNL     1     100.302 105.965  96.730  1.00  0.00     0.061 C 
ATOM     12  C   UNL     1      99.887 104.628  98.819  1.00  0.00     0.010 A 
ATOM     13  C   UNL     1      98.766 105.284 100.836  1.00  0.00     0.009 A 
ATOM     14  C   UNL     1     100.427 104.693  97.510  1.00  0.00    -0.020 A 
ATOM     15  C   UNL     1     100.137 103.373  99.345  1.00  0.00     0.046 A 
ATOM     16  C   UNL     1      99.029 104.011 101.365  1.00  0.00     0.003 A 
ATOM     17  C   UNL     1     100.997 103.468  97.250  1.00  0.00     0.087 A 
ATOM     18  N   UNL     1     100.817 102.679  98.367  1.00  0.00    -0.361 N 
ATOM     19  C   UNL     1      99.717 103.028 100.632  1.00  0.00     0.027 A 
ATOM     20  C   UNL     1     100.557 109.555  97.682  1.00  0.00     0.106 C 
ATOM     21  H   UNL     1     101.140 101.725  98.461  1.00  0.00     0.166 HD
ENDBRANCH   3   4
BRANCH   2  22
ATOM     22  C   UNL     1      93.994 110.023  97.299  1.00  0.00     0.116 C 
ATOM     23  C   UNL     1      93.833 110.595  95.898  1.00  0.00     0.027 C 
ENDBRANCH   2  22
BRANCH   2  24
ATOM     24  C   UNL     1      95.960 111.352  98.074  1.00  0.00     0.116 C 
ATOM     25  C   UNL     1      95.825 111.706  99.549  1.00  0.00     0.027 C 
ENDBRANCH   2  24
TORSDOF 3
ENDMDL
MODEL 19
REMARK VINA RESULT:    -7.101      3.710      5.252
REMARK INTER + INTRA:          -8.894
REMARK INTER:                  -8.344
REMARK INTRA:                  -0.550
REMARK UNBOUND:                -0.548
REMARK SMILES CCN(CC)C(=O)[C@@H]1C=C2c3cccc4[nH]cc(c34)C[C@H]2N(C)C1
REMARK SMILES IDX 7 1 3 2 6 3 8 4 24 5 9 6 22 7 10 8 21 9 11 10 20 11 19 12
REMARK SMILES IDX 12 13 18 14 15 15 13 16 17 17 16 18 14 19 23 20 2 22 1 23
REMARK SMILES IDX 4 24 5 25
REMARK H PARENT 16 21
ROOT
ATOM      1  O   UNL     1      97.935 107.784  95.136  1.00  0.00    -0.274 OA
ATOM      2  N   UNL     1      99.145 107.375  97.033  1.00  0.00    -0.343 N 
ATOM      3  C   UNL     1      98.103 107.999  96.345  1.00  0.00     0.230 C 
ENDROOT
BRANCH   3   4
ATOM      4  C   UNL     1      97.127 108.968  97.036  1.00  0.00     0.116 C 
ATOM      5  C   UNL     1      95.656 108.597  96.768  1.00  0.00     0.102 C 
ATOM      6  C   UNL     1      97.443 110.415  96.761  1.00  0.00    -0.007 C 
ATOM      7  N   UNL     1      94.672 109.585  97.255  1.00  0.00    -0.298 NA
ATOM      8  C   UNL     1      96.454 111.308  96.578  1.00  0.00    -0.026 C 
ATOM      9  C   UNL     1      94.950 110.944  96.721  1.00  0.00     0.091 C 
ATOM     10  C   UNL     1      96.726 112.672  96.078  1.00  0.00    -0.011 A 
ATOM     11  C   UNL     1      94.154 111.189  95.386  1.00  0.00     0.061 C 
ATOM     12  C   UNL     1      95.712 113.156  95.235  1.00  0.00     0.010 A 
ATOM     13  C   UNL     1      97.839 113.486  96.295  1.00  0.00     0.009 A 
ATOM     14  C   UNL     1      94.493 112.544  94.849  1.00  0.00    -0.020 A 
ATOM     15  C   UNL     1      95.798 114.401  94.635  1.00  0.00     0.046 A 
ATOM     16  C   UNL     1      97.916 114.748  95.687  1.00  0.00     0.003 A 
ATOM     17  C   UNL     1      93.851 113.424  94.008  1.00  0.00     0.087 A 
ATOM     18  N   UNL     1      94.649 114.543  93.887  1.00  0.00    -0.361 N 
ATOM     19  C   UNL     1      96.901 115.232  94.843  1.00  0.00     0.027 A 
ATOM     20  C   UNL     1      94.616 109.597  98.720  1.00  0.00     0.106 C 
ATOM     21  H   UNL     1      94.424 115.357  93.332  1.00  0.00     0.166 HD
ENDBRANCH   3   4
BRANCH   2  22
ATOM     22  C   UNL     1      99.955 106.418  96.268  1.00  0.00     0.116 C 
ATOM     23  C   UNL     1      99.686 104.977  96.679  1.00  0.00     0.027 C 
ENDBRANCH   2  22
BRANCH   2  24
ATOM     24  C   UNL     1      99.365 107.400  98.486  1.00  0.00     0.116 C 
ATOM     25  C   UNL     1     100.370 108.461  98.915  1.00  0.00     0.027 C 
ENDBRANCH   2  24
TORSDOF 3
ENDMDL
MODEL 20
REMARK VINA RESULT:    -6.996      2.730      6.520
REMARK INTER + INTRA:          -8.770
REMARK INTER:                  -8.318
REMARK INTRA:                  -0.453
REMARK UNBOUND:                -0.548
REMARK SMILES CCN(CC)C(=O)[C@@H]1C=C2c3cccc4[nH]cc(c34)C[C@H]2N(C)C1
REMARK SMILES IDX 7 1 3 2 6 3 8 4 24 5 9 6 22 7 10 8 21 9 11 10 20 11 19 12
REMARK SMILES IDX 12 13 18 14 15 15 13 16 17 17 16 18 14 19 23 20 2 22 1 23
REMARK SMILES IDX 4 24 5 25
REMARK H PARENT 16 21
ROOT
ATOM      1  O   UNL     1      98.696 113.569  95.003  1.00  0.00    -0.274 OA
ATOM      2  N   UNL     1      96.745 114.689  94.595  1.00  0.00    -0.343 N 
ATOM      3  C   UNL     1      97.465 113.621  95.133  1.00  0.00     0.230 C 
ENDROOT
BRANCH   3   4
ATOM      4  C   UNL     1      96.784 112.474  95.900  1.00  0.00     0.116 C 
ATOM      5  C   UNL     1      97.401 112.263  97.296  1.00  0.00     0.102 C 
ATOM      6  C   UNL     1      96.677 111.208  95.090  1.00  0.00    -0.007 C 
ATOM      7  N   UNL     1      96.912 111.067  98.012  1.00  0.00    -0.298 NA
ATOM      8  C   UNL     1      96.851 110.008  95.672  1.00  0.00    -0.026 C 
ATOM      9  C   UNL     1      97.079 109.834  97.199  1.00  0.00     0.091 C 
ATOM     10  C   UNL     1      96.987 108.773  94.871  1.00  0.00    -0.011 A 
ATOM     11  C   UNL     1      98.459 109.146  97.515  1.00  0.00     0.061 C 
ATOM     12  C   UNL     1      97.885 107.852  95.437  1.00  0.00     0.010 A 
ATOM     13  C   UNL     1      96.392 108.440  93.654  1.00  0.00     0.009 A 
ATOM     14  C   UNL     1      98.619 107.937  96.647  1.00  0.00    -0.020 A 
ATOM     15  C   UNL     1      98.178 106.649  94.819  1.00  0.00     0.046 A 
ATOM     16  C   UNL     1      96.690 107.217  93.036  1.00  0.00     0.003 A 
ATOM     17  C   UNL     1      99.360 106.782  96.749  1.00  0.00     0.087 A 
ATOM     18  N   UNL     1      99.084 106.010  95.639  1.00  0.00    -0.361 N 
ATOM     19  C   UNL     1      97.590 106.295  93.602  1.00  0.00     0.027 A 
ATOM     20  C   UNL     1      95.517 111.236  98.430  1.00  0.00     0.106 C 
ATOM     21  H   UNL     1      99.485 105.102  95.450  1.00  0.00     0.166 HD
ENDBRANCH   3   4
BRANCH   2  22
ATOM     22  C   UNL     1      97.529 115.751  93.953  1.00  0.00     0.116 C 
ATOM     23  C   UNL     1      96.734 117.039  93.793  1.00  0.00     0.027 C 
ENDBRANCH   2  22
BRANCH   2  24
ATOM     24  C   UNL     1      95.319 114.972  94.811  1.00  0.00     0.116 C 
ATOM     25  C   UNL     1      94.407 114.114  93.943  1.00  0.00     0.027 C 
ENDBRANCH   2  24
TORSDOF 3
ENDMDL
