MODEL 1
REMARK VINA RESULT:    -8.404      0.000      0.000
REMARK INTER + INTRA:         -10.331
REMARK INTER:                  -9.877
REMARK INTRA:                  -0.454
REMARK UNBOUND:                -0.454
REMARK SMILES CCN(CC)C(=O)[C@@H]1C=C2c3cccc4[nH]cc(c34)C[C@H]2N(C)C1
REMARK SMILES IDX 7 1 3 2 6 3 8 4 24 5 9 6 22 7 10 8 21 9 11 10 20 11 19 12
REMARK SMILES IDX 12 13 18 14 15 15 13 16 17 17 16 18 14 19 23 20 2 22 1 23
REMARK SMILES IDX 4 24 5 25
REMARK H PARENT 16 21
ROOT
ATOM      1  O   UNL     1      93.392 122.722 115.236  1.00  0.00    -0.274 OA
ATOM      2  N   UNL     1      94.622 124.592 115.704  1.00  0.00    -0.343 N 
ATOM      3  C   UNL     1      94.021 123.387 116.071  1.00  0.00     0.230 C 
ENDROOT
BRANCH   3   4
ATOM      4  C   UNL     1      94.105 122.829 117.503  1.00  0.00     0.116 C 
ATOM      5  C   UNL     1      94.192 121.291 117.523  1.00  0.00     0.102 C 
ATOM      6  C   UNL     1      93.039 123.384 118.413  1.00  0.00    -0.007 C 
ATOM      7  N   UNL     1      94.098 120.685 118.867  1.00  0.00    -0.298 NA
ATOM      8  C   UNL     1      92.449 122.600 119.332  1.00  0.00    -0.026 C 
ATOM      9  C   UNL     1      92.872 121.126 119.583  1.00  0.00     0.091 C 
ATOM     10  C   UNL     1      91.248 123.044 120.070  1.00  0.00    -0.011 A 
ATOM     11  C   UNL     1      91.689 120.120 119.325  1.00  0.00     0.061 C 
ATOM     12  C   UNL     1      90.348 121.996 120.329  1.00  0.00     0.010 A 
ATOM     13  C   UNL     1      90.892 124.327 120.487  1.00  0.00     0.009 A 
ATOM     14  C   UNL     1      90.458 120.617 120.017  1.00  0.00    -0.020 A 
ATOM     15  C   UNL     1      89.145 122.214 120.977  1.00  0.00     0.046 A 
ATOM     16  C   UNL     1      89.673 124.539 121.149  1.00  0.00     0.003 A 
ATOM     17  C   UNL     1      89.312 120.009 120.474  1.00  0.00     0.087 A 
ATOM     18  N   UNL     1      88.526 120.984 121.054  1.00  0.00    -0.361 N 
ATOM     19  C   UNL     1      88.772 123.490 121.406  1.00  0.00     0.027 A 
ATOM     20  C   UNL     1      95.299 120.967 119.659  1.00  0.00     0.106 C 
ATOM     21  H   UNL     1      87.624 120.823 121.481  1.00  0.00     0.166 HD
ENDBRANCH   3   4
BRANCH   2  22
ATOM     22  C   UNL     1      94.526 124.967 114.288  1.00  0.00     0.116 C 
ATOM     23  C   UNL     1      95.796 124.635 113.517  1.00  0.00     0.027 C 
ENDBRANCH   2  22
BRANCH   2  24
ATOM     24  C   UNL     1      95.532 125.397 116.532  1.00  0.00     0.116 C 
ATOM     25  C   UNL     1      95.365 126.895 116.311  1.00  0.00     0.027 C 
ENDBRANCH   2  24
TORSDOF 3
ENDMDL
MODEL 2
REMARK VINA RESULT:    -8.332      2.467      7.284
REMARK INTER + INTRA:         -10.248
REMARK INTER:                  -9.766
REMARK INTRA:                  -0.482
REMARK UNBOUND:                -0.454
REMARK SMILES CCN(CC)C(=O)[C@@H]1C=C2c3cccc4[nH]cc(c34)C[C@H]2N(C)C1
REMARK SMILES IDX 7 1 3 2 6 3 8 4 24 5 9 6 22 7 10 8 21 9 11 10 20 11 19 12
REMARK SMILES IDX 12 13 18 14 15 15 13 16 17 17 16 18 14 19 23 20 2 22 1 23
REMARK SMILES IDX 4 24 5 25
REMARK H PARENT 16 21
ROOT
ATOM      1  O   UNL     1      89.390 122.251 120.057  1.00  0.00    -0.274 OA
ATOM      2  N   UNL     1      88.859 120.601 121.549  1.00  0.00    -0.343 N 
ATOM      3  C   UNL     1      89.691 121.170 120.584  1.00  0.00     0.230 C 
ENDROOT
BRANCH   3   4
ATOM      4  C   UNL     1      91.002 120.502 120.131  1.00  0.00     0.116 C 
ATOM      5  C   UNL     1      92.243 121.209 120.707  1.00  0.00     0.102 C 
ATOM      6  C   UNL     1      91.067 120.288 118.641  1.00  0.00    -0.007 C 
ATOM      7  N   UNL     1      93.532 120.726 120.171  1.00  0.00    -0.298 NA
ATOM      8  C   UNL     1      92.224 120.456 117.976  1.00  0.00    -0.026 C 
ATOM      9  C   UNL     1      93.567 120.787 118.686  1.00  0.00     0.091 C 
ATOM     10  C   UNL     1      92.270 120.487 116.499  1.00  0.00    -0.011 A 
ATOM     11  C   UNL     1      94.169 122.158 118.202  1.00  0.00     0.061 C 
ATOM     12  C   UNL     1      93.228 121.387 116.002  1.00  0.00     0.010 A 
ATOM     13  C   UNL     1      91.485 119.794 115.577  1.00  0.00     0.009 A 
ATOM     14  C   UNL     1      94.144 122.208 116.706  1.00  0.00    -0.020 A 
ATOM     15  C   UNL     1      93.400 121.588 114.643  1.00  0.00     0.046 A 
ATOM     16  C   UNL     1      91.669 119.999 114.201  1.00  0.00     0.003 A 
ATOM     17  C   UNL     1      94.861 122.909 115.765  1.00  0.00     0.087 A 
ATOM     18  N   UNL     1      94.404 122.524 114.521  1.00  0.00    -0.361 N 
ATOM     19  C   UNL     1      92.627 120.900 113.704  1.00  0.00     0.027 A 
ATOM     20  C   UNL     1      93.829 119.372 120.649  1.00  0.00     0.106 C 
ATOM     21  H   UNL     1      94.756 122.876 113.641  1.00  0.00     0.166 HD
ENDBRANCH   3   4
BRANCH   2  22
ATOM     22  C   UNL     1      87.679 121.382 121.940  1.00  0.00     0.116 C 
ATOM     23  C   UNL     1      87.851 122.044 123.300  1.00  0.00     0.027 C 
ENDBRANCH   2  22
BRANCH   2  24
ATOM     24  C   UNL     1      89.164 119.423 122.374  1.00  0.00     0.116 C 
ATOM     25  C   UNL     1      88.045 118.390 122.368  1.00  0.00     0.027 C 
ENDBRANCH   2  24
TORSDOF 3
ENDMDL
MODEL 3
REMARK VINA RESULT:    -8.253      1.858      2.187
REMARK INTER + INTRA:         -10.154
REMARK INTER:                  -9.615
REMARK INTRA:                  -0.539
REMARK UNBOUND:                -0.454
REMARK SMILES CCN(CC)C(=O)[C@@H]1C=C2c3cccc4[nH]cc(c34)C[C@H]2N(C)C1
REMARK SMILES IDX 7 1 3 2 6 3 8 4 24 5 9 6 22 7 10 8 21 9 11 10 20 11 19 12
REMARK SMILES IDX 12 13 18 14 15 15 13 16 17 17 16 18 14 19 23 20 2 22 1 23
REMARK SMILES IDX 4 24 5 25
REMARK H PARENT 16 21
ROOT
ATOM      1  O   UNL     1      92.421 119.948 115.787  1.00  0.00    -0.274 OA
ATOM      2  N   UNL     1      93.993 121.364 114.918  1.00  0.00    -0.343 N 
ATOM      3  C   UNL     1      93.339 120.756 115.991  1.00  0.00     0.230 C 
ENDROOT
BRANCH   3   4
ATOM      4  C   UNL     1      93.714 121.048 117.455  1.00  0.00     0.116 C 
ATOM      5  C   UNL     1      94.054 119.763 118.234  1.00  0.00     0.102 C 
ATOM      6  C   UNL     1      92.710 121.928 118.154  1.00  0.00    -0.007 C 
ATOM      7  N   UNL     1      94.251 119.956 119.685  1.00  0.00    -0.298 NA
ATOM      8  C   UNL     1      92.392 121.713 119.442  1.00  0.00    -0.026 C 
ATOM      9  C   UNL     1      93.082 120.626 120.313  1.00  0.00     0.091 C 
ATOM     10  C   UNL     1      91.250 122.399 120.082  1.00  0.00    -0.011 A 
ATOM     11  C   UNL     1      92.056 119.561 120.851  1.00  0.00     0.061 C 
ATOM     12  C   UNL     1      90.580 121.590 121.016  1.00  0.00     0.010 A 
ATOM     13  C   UNL     1      90.751 123.682 119.853  1.00  0.00     0.009 A 
ATOM     14  C   UNL     1      90.870 120.266 121.432  1.00  0.00    -0.020 A 
ATOM     15  C   UNL     1      89.461 122.038 121.695  1.00  0.00     0.046 A 
ATOM     16  C   UNL     1      89.618 124.131 120.550  1.00  0.00     0.003 A 
ATOM     17  C   UNL     1      89.915 119.919 122.359  1.00  0.00     0.087 A 
ATOM     18  N   UNL     1      89.070 120.998 122.511  1.00  0.00    -0.361 N 
ATOM     19  C   UNL     1      88.948 123.320 121.484  1.00  0.00     0.027 A 
ATOM     20  C   UNL     1      95.489 120.693 119.957  1.00  0.00     0.106 C 
ATOM     21  H   UNL     1      88.275 121.028 123.136  1.00  0.00     0.166 HD
ENDBRANCH   3   4
BRANCH   2  22
ATOM     22  C   UNL     1      93.584 120.937 113.574  1.00  0.00     0.116 C 
ATOM     23  C   UNL     1      94.773 120.558 112.704  1.00  0.00     0.027 C 
ENDBRANCH   2  22
BRANCH   2  24
ATOM     24  C   UNL     1      95.197 122.204 114.998  1.00  0.00     0.116 C 
ATOM     25  C   UNL     1      94.883 123.694 114.971  1.00  0.00     0.027 C 
ENDBRANCH   2  24
TORSDOF 3
ENDMDL
MODEL 4
REMARK VINA RESULT:    -8.042      2.496      7.162
REMARK INTER + INTRA:          -9.907
REMARK INTER:                  -9.573
REMARK INTRA:                  -0.333
REMARK UNBOUND:                -0.454
REMARK SMILES CCN(CC)C(=O)[C@@H]1C=C2c3cccc4[nH]cc(c34)C[C@H]2N(C)C1
REMARK SMILES IDX 7 1 3 2 6 3 8 4 24 5 9 6 22 7 10 8 21 9 11 10 20 11 19 12
REMARK SMILES IDX 12 13 18 14 15 15 13 16 17 17 16 18 14 19 23 20 2 22 1 23
REMARK SMILES IDX 4 24 5 25
REMARK H PARENT 16 21
ROOT
ATOM      1  O   UNL     1      93.599 119.420 119.269  1.00  0.00    -0.274 OA
ATOM      2  N   UNL     1      91.535 120.044 120.032  1.00  0.00    -0.343 N 
ATOM      3  C   UNL     1      92.494 119.926 119.025  1.00  0.00     0.230 C 
ENDROOT
BRANCH   3   4
ATOM      4  C   UNL     1      92.238 120.407 117.585  1.00  0.00     0.116 C 
ATOM      5  C   UNL     1      92.626 119.344 116.541  1.00  0.00     0.102 C 
ATOM      6  C   UNL     1      92.824 121.767 117.308  1.00  0.00    -0.007 C 
ATOM      7  N   UNL     1      92.569 119.807 115.139  1.00  0.00    -0.298 NA
ATOM      8  C   UNL     1      93.383 122.040 116.115  1.00  0.00    -0.026 C 
ATOM      9  C   UNL     1      93.386 121.032 114.933  1.00  0.00     0.091 C 
ATOM     10  C   UNL     1      94.170 123.271 115.894  1.00  0.00    -0.011 A 
ATOM     11  C   UNL     1      94.845 120.654 114.482  1.00  0.00     0.061 C 
ATOM     12  C   UNL     1      95.256 123.075 115.024  1.00  0.00     0.010 A 
ATOM     13  C   UNL     1      94.000 124.539 116.450  1.00  0.00     0.009 A 
ATOM     14  C   UNL     1      95.655 121.905 114.331  1.00  0.00    -0.020 A 
ATOM     15  C   UNL     1      96.136 124.099 114.719  1.00  0.00     0.046 A 
ATOM     16  C   UNL     1      94.894 125.573 116.132  1.00  0.00     0.003 A 
ATOM     17  C   UNL     1      96.784 122.227 113.614  1.00  0.00     0.087 A 
ATOM     18  N   UNL     1      97.064 123.557 113.855  1.00  0.00    -0.361 N 
ATOM     19  C   UNL     1      95.981 125.376 115.262  1.00  0.00     0.027 A 
ATOM     20  C   UNL     1      91.184 120.020 114.708  1.00  0.00     0.106 C 
ATOM     21  H   UNL     1      97.839 124.067 113.453  1.00  0.00     0.166 HD
ENDBRANCH   3   4
BRANCH   2  22
ATOM     22  C   UNL     1      91.886 119.476 121.340  1.00  0.00     0.116 C 
ATOM     23  C   UNL     1      91.086 120.102 122.473  1.00  0.00     0.027 C 
ENDBRANCH   2  22
BRANCH   2  24
ATOM     24  C   UNL     1      90.137 120.463 119.857  1.00  0.00     0.116 C 
ATOM     25  C   UNL     1      89.956 121.973 119.937  1.00  0.00     0.027 C 
ENDBRANCH   2  24
TORSDOF 3
ENDMDL
MODEL 5
REMARK VINA RESULT:    -7.928      1.579      1.890
REMARK INTER + INTRA:          -9.773
REMARK INTER:                  -9.207
REMARK INTRA:                  -0.566
REMARK UNBOUND:                -0.454
REMARK SMILES CCN(CC)C(=O)[C@@H]1C=C2c3cccc4[nH]cc(c34)C[C@H]2N(C)C1
REMARK SMILES IDX 7 1 3 2 6 3 8 4 24 5 9 6 22 7 10 8 21 9 11 10 20 11 19 12
REMARK SMILES IDX 12 13 18 14 15 15 13 16 17 17 16 18 14 19 23 20 2 22 1 23
REMARK SMILES IDX 4 24 5 25
REMARK H PARENT 16 21
ROOT
ATOM      1  O   UNL     1      92.346 120.337 115.639  1.00  0.00    -0.274 OA
ATOM      2  N   UNL     1      93.819 122.074 115.437  1.00  0.00    -0.343 N 
ATOM      3  C   UNL     1      93.126 121.126 116.191  1.00  0.00     0.230 C 
ENDROOT
BRANCH   3   4
ATOM      4  C   UNL     1      93.289 121.011 117.718  1.00  0.00     0.116 C 
ATOM      5  C   UNL     1      93.174 119.554 118.204  1.00  0.00     0.102 C 
ATOM      6  C   UNL     1      92.409 121.971 118.476  1.00  0.00    -0.007 C 
ATOM      7  N   UNL     1      93.146 119.395 119.673  1.00  0.00    -0.298 NA
ATOM      8  C   UNL     1      91.823 121.597 119.627  1.00  0.00    -0.026 C 
ATOM      9  C   UNL     1      92.072 120.215 120.293  1.00  0.00     0.091 C 
ATOM     10  C   UNL     1      90.777 122.423 120.266  1.00  0.00    -0.011 A 
ATOM     11  C   UNL     1      90.747 119.379 120.431  1.00  0.00     0.061 C 
ATOM     12  C   UNL     1      89.780 121.654 120.890  1.00  0.00     0.010 A 
ATOM     13  C   UNL     1      90.640 123.811 120.289  1.00  0.00     0.009 A 
ATOM     14  C   UNL     1      89.673 120.246 121.012  1.00  0.00    -0.020 A 
ATOM     15  C   UNL     1      88.693 122.241 121.513  1.00  0.00     0.046 A 
ATOM     16  C   UNL     1      89.537 124.399 120.927  1.00  0.00     0.003 A 
ATOM     17  C   UNL     1      88.513 119.989 121.705  1.00  0.00     0.087 A 
ATOM     18  N   UNL     1      87.929 121.203 122.004  1.00  0.00    -0.361 N 
ATOM     19  C   UNL     1      88.539 123.629 121.551  1.00  0.00     0.027 A 
ATOM     20  C   UNL     1      94.451 119.705 120.263  1.00  0.00     0.106 C 
ATOM     21  H   UNL     1      87.064 121.320 122.514  1.00  0.00     0.166 HD
ENDBRANCH   3   4
BRANCH   2  22
ATOM     22  C   UNL     1      93.625 122.023 113.982  1.00  0.00     0.116 C 
ATOM     23  C   UNL     1      94.810 121.393 113.265  1.00  0.00     0.027 C 
ENDBRANCH   2  22
BRANCH   2  24
ATOM     24  C   UNL     1      94.891 122.955 115.922  1.00  0.00     0.116 C 
ATOM     25  C   UNL     1      94.404 124.363 116.238  1.00  0.00     0.027 C 
ENDBRANCH   2  24
TORSDOF 3
ENDMDL
MODEL 6
REMARK VINA RESULT:    -7.917      2.010      2.649
REMARK INTER + INTRA:          -9.759
REMARK INTER:                  -9.694
REMARK INTRA:                  -0.065
REMARK UNBOUND:                -0.454
REMARK SMILES CCN(CC)C(=O)[C@@H]1C=C2c3cccc4[nH]cc(c34)C[C@H]2N(C)C1
REMARK SMILES IDX 7 1 3 2 6 3 8 4 24 5 9 6 22 7 10 8 21 9 11 10 20 11 19 12
REMARK SMILES IDX 12 13 18 14 15 15 13 16 17 17 16 18 14 19 23 20 2 22 1 23
REMARK SMILES IDX 4 24 5 25
REMARK H PARENT 16 21
ROOT
ATOM      1  O   UNL     1      94.306 123.215 115.585  1.00  0.00    -0.274 OA
ATOM      2  N   UNL     1      93.623 121.047 115.335  1.00  0.00    -0.343 N 
ATOM      3  C   UNL     1      94.020 122.133 116.117  1.00  0.00     0.230 C 
ENDROOT
BRANCH   3   4
ATOM      4  C   UNL     1      94.123 122.048 117.650  1.00  0.00     0.116 C 
ATOM      5  C   UNL     1      94.579 120.654 118.124  1.00  0.00     0.102 C 
ATOM      6  C   UNL     1      92.887 122.549 118.351  1.00  0.00    -0.007 C 
ATOM      7  N   UNL     1      94.529 120.454 119.587  1.00  0.00    -0.298 NA
ATOM      8  C   UNL     1      92.434 121.936 119.459  1.00  0.00    -0.026 C 
ATOM      9  C   UNL     1      93.180 120.753 120.136  1.00  0.00     0.091 C 
ATOM     10  C   UNL     1      91.107 122.251 120.029  1.00  0.00    -0.011 A 
ATOM     11  C   UNL     1      92.300 119.449 120.183  1.00  0.00     0.061 C 
ATOM     12  C   UNL     1      90.470 121.127 120.582  1.00  0.00     0.010 A 
ATOM     13  C   UNL     1      90.419 123.464 120.046  1.00  0.00     0.009 A 
ATOM     14  C   UNL     1      90.935 119.792 120.693  1.00  0.00    -0.020 A 
ATOM     15  C   UNL     1      89.203 121.207 121.133  1.00  0.00     0.046 A 
ATOM     16  C   UNL     1      89.137 123.539 120.611  1.00  0.00     0.003 A 
ATOM     17  C   UNL     1      89.938 119.069 121.306  1.00  0.00     0.087 A 
ATOM     18  N   UNL     1      88.896 119.935 121.568  1.00  0.00    -0.361 N 
ATOM     19  C   UNL     1      88.500 122.413 121.164  1.00  0.00     0.027 A 
ATOM     20  C   UNL     1      95.560 121.246 120.264  1.00  0.00     0.106 C 
ATOM     21  H   UNL     1      88.029 119.678 122.020  1.00  0.00     0.166 HD
ENDBRANCH   3   4
BRANCH   2  22
ATOM     22  C   UNL     1      93.496 121.290 113.893  1.00  0.00     0.116 C 
ATOM     23  C   UNL     1      94.706 120.790 113.116  1.00  0.00     0.027 C 
ENDBRANCH   2  22
BRANCH   2  24
ATOM     24  C   UNL     1      93.097 119.767 115.830  1.00  0.00     0.116 C 
ATOM     25  C   UNL     1      91.579 119.757 115.953  1.00  0.00     0.027 C 
ENDBRANCH   2  24
TORSDOF 3
ENDMDL
MODEL 7
REMARK VINA RESULT:    -7.666      3.435      7.002
REMARK INTER + INTRA:          -9.465
REMARK INTER:                  -9.108
REMARK INTRA:                  -0.357
REMARK UNBOUND:                -0.454
REMARK SMILES CCN(CC)C(=O)[C@@H]1C=C2c3cccc4[nH]cc(c34)C[C@H]2N(C)C1
REMARK SMILES IDX 7 1 3 2 6 3 8 4 24 5 9 6 22 7 10 8 21 9 11 10 20 11 19 12
REMARK SMILES IDX 12 13 18 14 15 15 13 16 17 17 16 18 14 19 23 20 2 22 1 23
REMARK SMILES IDX 4 24 5 25
REMARK H PARENT 16 21
ROOT
ATOM      1  O   UNL     1      90.640 125.608 123.651  1.00  0.00    -0.274 OA
ATOM      2  N   UNL     1      88.805 126.924 123.292  1.00  0.00    -0.343 N 
ATOM      3  C   UNL     1      89.535 125.749 123.107  1.00  0.00     0.230 C 
ENDROOT
BRANCH   3   4
ATOM      4  C   UNL     1      89.021 124.589 122.236  1.00  0.00     0.116 C 
ATOM      5  C   UNL     1      88.498 123.414 123.085  1.00  0.00     0.102 C 
ATOM      6  C   UNL     1      90.002 124.174 121.171  1.00  0.00    -0.007 C 
ATOM      7  N   UNL     1      88.154 122.202 122.314  1.00  0.00    -0.298 NA
ATOM      8  C   UNL     1      90.156 122.877 120.851  1.00  0.00    -0.026 C 
ATOM      9  C   UNL     1      89.291 121.745 121.473  1.00  0.00     0.091 C 
ATOM     10  C   UNL     1      91.266 122.419 119.990  1.00  0.00    -0.011 A 
ATOM     11  C   UNL     1      90.166 120.693 122.250  1.00  0.00     0.061 C 
ATOM     12  C   UNL     1      91.763 121.159 120.365  1.00  0.00     0.010 A 
ATOM     13  C   UNL     1      91.884 123.073 118.924  1.00  0.00     0.009 A 
ATOM     14  C   UNL     1      91.329 120.291 121.397  1.00  0.00    -0.020 A 
ATOM     15  C   UNL     1      92.829 120.573 119.705  1.00  0.00     0.046 A 
ATOM     16  C   UNL     1      92.961 122.470 118.256  1.00  0.00     0.003 A 
ATOM     17  C   UNL     1      92.144 119.183 121.359  1.00  0.00     0.087 A 
ATOM     18  N   UNL     1      93.046 119.364 120.331  1.00  0.00    -0.361 N 
ATOM     19  C   UNL     1      93.458 121.209 118.632  1.00  0.00     0.027 A 
ATOM     20  C   UNL     1      86.953 122.417 121.501  1.00  0.00     0.106 C 
ATOM     21  H   UNL     1      93.765 118.704 120.068  1.00  0.00     0.166 HD
ENDBRANCH   3   4
BRANCH   2  22
ATOM     22  C   UNL     1      89.380 127.916 124.208  1.00  0.00     0.116 C 
ATOM     23  C   UNL     1      89.274 129.333 123.663  1.00  0.00     0.027 C 
ENDBRANCH   2  22
BRANCH   2  24
ATOM     24  C   UNL     1      87.422 127.165 122.855  1.00  0.00     0.116 C 
ATOM     25  C   UNL     1      87.322 127.518 121.376  1.00  0.00     0.027 C 
ENDBRANCH   2  24
TORSDOF 3
ENDMDL
MODEL 8
REMARK VINA RESULT:    -7.512      1.721      2.423
REMARK INTER + INTRA:          -9.284
REMARK INTER:                  -9.617
REMARK INTRA:                   0.333
REMARK UNBOUND:                -0.454
REMARK SMILES CCN(CC)C(=O)[C@@H]1C=C2c3cccc4[nH]cc(c34)C[C@H]2N(C)C1
REMARK SMILES IDX 7 1 3 2 6 3 8 4 24 5 9 6 22 7 10 8 21 9 11 10 20 11 19 12
REMARK SMILES IDX 12 13 18 14 15 15 13 16 17 17 16 18 14 19 23 20 2 22 1 23
REMARK SMILES IDX 4 24 5 25
REMARK H PARENT 16 21
ROOT
ATOM      1  O   UNL     1      92.614 123.647 117.221  1.00  0.00    -0.274 OA
ATOM      2  N   UNL     1      93.855 122.126 116.047  1.00  0.00    -0.343 N 
ATOM      3  C   UNL     1      93.238 122.575 117.216  1.00  0.00     0.230 C 
ENDROOT
BRANCH   3   4
ATOM      4  C   UNL     1      93.295 121.782 118.534  1.00  0.00     0.116 C 
ATOM      5  C   UNL     1      92.970 120.290 118.327  1.00  0.00     0.102 C 
ATOM      6  C   UNL     1      92.502 122.425 119.641  1.00  0.00    -0.007 C 
ATOM      7  N   UNL     1      92.836 119.510 119.574  1.00  0.00    -0.298 NA
ATOM      8  C   UNL     1      91.807 121.670 120.511  1.00  0.00    -0.026 C 
ATOM      9  C   UNL     1      91.841 120.116 120.497  1.00  0.00     0.091 C 
ATOM     10  C   UNL     1      90.838 122.269 121.453  1.00  0.00    -0.011 A 
ATOM     11  C   UNL     1      90.414 119.497 120.256  1.00  0.00     0.061 C 
ATOM     12  C   UNL     1      89.717 121.451 121.677  1.00  0.00     0.010 A 
ATOM     13  C   UNL     1      90.877 123.511 122.087  1.00  0.00     0.009 A 
ATOM     14  C   UNL     1      89.427 120.162 121.164  1.00  0.00    -0.020 A 
ATOM     15  C   UNL     1      88.679 121.851 122.499  1.00  0.00     0.046 A 
ATOM     16  C   UNL     1      89.822 123.907 122.923  1.00  0.00     0.003 A 
ATOM     17  C   UNL     1      88.205 119.792 121.677  1.00  0.00     0.087 A 
ATOM     18  N   UNL     1      87.763 120.820 122.484  1.00  0.00    -0.361 N 
ATOM     19  C   UNL     1      88.700 123.088 123.147  1.00  0.00     0.027 A 
ATOM     20  C   UNL     1      94.134 119.345 120.236  1.00  0.00     0.106 C 
ATOM     21  H   UNL     1      86.892 120.821 122.996  1.00  0.00     0.166 HD
ENDBRANCH   3   4
BRANCH   2  22
ATOM     22  C   UNL     1      93.657 122.945 114.845  1.00  0.00     0.116 C 
ATOM     23  C   UNL     1      94.748 123.993 114.675  1.00  0.00     0.027 C 
ENDBRANCH   2  22
BRANCH   2  24
ATOM     24  C   UNL     1      94.479 120.810 115.845  1.00  0.00     0.116 C 
ATOM     25  C   UNL     1      94.786 120.519 114.382  1.00  0.00     0.027 C 
ENDBRANCH   2  24
TORSDOF 3
ENDMDL
MODEL 9
REMARK VINA RESULT:    -7.473      2.763      3.691
REMARK INTER + INTRA:          -9.238
REMARK INTER:                  -9.060
REMARK INTRA:                  -0.178
REMARK UNBOUND:                -0.454
REMARK SMILES CCN(CC)C(=O)[C@@H]1C=C2c3cccc4[nH]cc(c34)C[C@H]2N(C)C1
REMARK SMILES IDX 7 1 3 2 6 3 8 4 24 5 9 6 22 7 10 8 21 9 11 10 20 11 19 12
REMARK SMILES IDX 12 13 18 14 15 15 13 16 17 17 16 18 14 19 23 20 2 22 1 23
REMARK SMILES IDX 4 24 5 25
REMARK H PARENT 16 21
ROOT
ATOM      1  O   UNL     1      93.185 124.577 114.675  1.00  0.00    -0.274 OA
ATOM      2  N   UNL     1      95.410 125.047 114.915  1.00  0.00    -0.343 N 
ATOM      3  C   UNL     1      94.336 124.157 114.859  1.00  0.00     0.230 C 
ENDROOT
BRANCH   3   4
ATOM      4  C   UNL     1      94.519 122.637 115.020  1.00  0.00     0.116 C 
ATOM      5  C   UNL     1      93.681 121.841 114.001  1.00  0.00     0.102 C 
ATOM      6  C   UNL     1      94.342 122.171 116.441  1.00  0.00    -0.007 C 
ATOM      7  N   UNL     1      93.675 120.380 114.215  1.00  0.00    -0.298 NA
ATOM      8  C   UNL     1      93.729 121.003 116.707  1.00  0.00    -0.026 C 
ATOM      9  C   UNL     1      93.250 120.029 115.595  1.00  0.00     0.091 C 
ATOM     10  C   UNL     1      93.331 120.634 118.081  1.00  0.00    -0.011 A 
ATOM     11  C   UNL     1      91.696 119.787 115.651  1.00  0.00     0.061 C 
ATOM     12  C   UNL     1      92.124 119.915 118.126  1.00  0.00     0.010 A 
ATOM     13  C   UNL     1      93.956 120.934 119.292  1.00  0.00     0.009 A 
ATOM     14  C   UNL     1      91.293 119.485 117.061  1.00  0.00    -0.020 A 
ATOM     15  C   UNL     1      91.564 119.509 119.324  1.00  0.00     0.046 A 
ATOM     16  C   UNL     1      93.384 120.515 120.503  1.00  0.00     0.003 A 
ATOM     17  C   UNL     1      90.226 118.825 117.626  1.00  0.00     0.087 A 
ATOM     18  N   UNL     1      90.401 118.845 118.995  1.00  0.00    -0.361 N 
ATOM     19  C   UNL     1      92.176 119.796 120.546  1.00  0.00     0.027 A 
ATOM     20  C   UNL     1      94.982 119.795 113.903  1.00  0.00     0.106 C 
ATOM     21  H   UNL     1      89.770 118.429 119.666  1.00  0.00     0.166 HD
ENDBRANCH   3   4
BRANCH   2  22
ATOM     22  C   UNL     1      95.102 126.461 114.671  1.00  0.00     0.116 C 
ATOM     23  C   UNL     1      95.262 127.310 115.925  1.00  0.00     0.027 C 
ENDBRANCH   2  22
BRANCH   2  24
ATOM     24  C   UNL     1      96.835 124.687 114.957  1.00  0.00     0.116 C 
ATOM     25  C   UNL     1      97.236 123.723 113.849  1.00  0.00     0.027 C 
ENDBRANCH   2  24
TORSDOF 3
ENDMDL
MODEL 10
REMARK VINA RESULT:    -7.428      3.646      6.732
REMARK INTER + INTRA:          -9.185
REMARK INTER:                  -8.712
REMARK INTRA:                  -0.473
REMARK UNBOUND:                -0.454
REMARK SMILES CCN(CC)C(=O)[C@@H]1C=C2c3cccc4[nH]cc(c34)C[C@H]2N(C)C1
REMARK SMILES IDX 7 1 3 2 6 3 8 4 24 5 9 6 22 7 10 8 21 9 11 10 20 11 19 12
REMARK SMILES IDX 12 13 18 14 15 15 13 16 17 17 16 18 14 19 23 20 2 22 1 23
REMARK SMILES IDX 4 24 5 25
REMARK H PARENT 16 21
ROOT
ATOM      1  O   UNL     1      89.538 124.667 120.228  1.00  0.00    -0.274 OA
ATOM      2  N   UNL     1      88.271 124.740 122.130  1.00  0.00    -0.343 N 
ATOM      3  C   UNL     1      89.167 124.105 121.268  1.00  0.00     0.230 C 
ENDROOT
BRANCH   3   4
ATOM      4  C   UNL     1      89.731 122.702 121.556  1.00  0.00     0.116 C 
ATOM      5  C   UNL     1      91.102 122.762 122.256  1.00  0.00     0.102 C 
ATOM      6  C   UNL     1      89.709 121.801 120.349  1.00  0.00    -0.007 C 
ATOM      7  N   UNL     1      91.777 121.456 122.402  1.00  0.00    -0.298 NA
ATOM      8  C   UNL     1      90.720 120.944 120.117  1.00  0.00    -0.026 C 
ATOM      9  C   UNL     1      91.912 120.759 121.096  1.00  0.00     0.091 C 
ATOM     10  C   UNL     1      90.843 120.224 118.832  1.00  0.00    -0.011 A 
ATOM     11  C   UNL     1      93.290 121.109 120.421  1.00  0.00     0.061 C 
ATOM     12  C   UNL     1      92.178 120.052 118.429  1.00  0.00     0.010 A 
ATOM     13  C   UNL     1      89.840 119.752 117.986  1.00  0.00     0.009 A 
ATOM     14  C   UNL     1      93.374 120.433 119.088  1.00  0.00    -0.020 A 
ATOM     15  C   UNL     1      92.502 119.434 117.234  1.00  0.00     0.046 A 
ATOM     16  C   UNL     1      90.177 119.121 116.778  1.00  0.00     0.003 A 
ATOM     17  C   UNL     1      94.418 120.047 118.280  1.00  0.00     0.087 A 
ATOM     18  N   UNL     1      93.879 119.442 117.163  1.00  0.00    -0.361 N 
ATOM     19  C   UNL     1      91.513 118.950 116.375  1.00  0.00     0.027 A 
ATOM     20  C   UNL     1      91.086 120.611 123.380  1.00  0.00     0.106 C 
ATOM     21  H   UNL     1      94.416 119.056 116.398  1.00  0.00     0.166 HD
ENDBRANCH   3   4
BRANCH   2  22
ATOM     22  C   UNL     1      87.871 126.105 121.769  1.00  0.00     0.116 C 
ATOM     23  C   UNL     1      88.590 127.156 122.604  1.00  0.00     0.027 C 
ENDBRANCH   2  22
BRANCH   2  24
ATOM     24  C   UNL     1      87.875 124.275 123.467  1.00  0.00     0.116 C 
ATOM     25  C   UNL     1      86.689 123.320 123.436  1.00  0.00     0.027 C 
ENDBRANCH   2  24
TORSDOF 3
ENDMDL
MODEL 11
REMARK VINA RESULT:    -7.368      2.811      6.636
REMARK INTER + INTRA:          -9.114
REMARK INTER:                  -9.188
REMARK INTRA:                   0.074
REMARK UNBOUND:                -0.454
REMARK SMILES CCN(CC)C(=O)[C@@H]1C=C2c3cccc4[nH]cc(c34)C[C@H]2N(C)C1
REMARK SMILES IDX 7 1 3 2 6 3 8 4 24 5 9 6 22 7 10 8 21 9 11 10 20 11 19 12
REMARK SMILES IDX 12 13 18 14 15 15 13 16 17 17 16 18 14 19 23 20 2 22 1 23
REMARK SMILES IDX 4 24 5 25
REMARK H PARENT 16 21
ROOT
ATOM      1  O   UNL     1      87.986 120.591 121.355  1.00  0.00    -0.274 OA
ATOM      2  N   UNL     1      89.263 122.476 121.563  1.00  0.00    -0.343 N 
ATOM      3  C   UNL     1      89.102 121.122 121.266  1.00  0.00     0.230 C 
ENDROOT
BRANCH   3   4
ATOM      4  C   UNL     1      90.277 120.232 120.821  1.00  0.00     0.116 C 
ATOM      5  C   UNL     1      91.621 120.715 121.400  1.00  0.00     0.102 C 
ATOM      6  C   UNL     1      90.310 120.003 119.332  1.00  0.00    -0.007 C 
ATOM      7  N   UNL     1      92.808 120.012 120.872  1.00  0.00    -0.298 NA
ATOM      8  C   UNL     1      91.481 119.964 118.672  1.00  0.00    -0.026 C 
ATOM      9  C   UNL     1      92.858 120.058 119.387  1.00  0.00     0.091 C 
ATOM     10  C   UNL     1      91.537 119.978 117.196  1.00  0.00    -0.011 A 
ATOM     11  C   UNL     1      93.692 121.300 118.900  1.00  0.00     0.061 C 
ATOM     12  C   UNL     1      92.639 120.695 116.698  1.00  0.00     0.010 A 
ATOM     13  C   UNL     1      90.647 119.428 116.273  1.00  0.00     0.009 A 
ATOM     14  C   UNL     1      93.682 121.347 117.404  1.00  0.00    -0.020 A 
ATOM     15  C   UNL     1      92.848 120.855 115.340  1.00  0.00     0.046 A 
ATOM     16  C   UNL     1      90.868 119.591 114.897  1.00  0.00     0.003 A 
ATOM     17  C   UNL     1      94.514 121.907 116.463  1.00  0.00     0.087 A 
ATOM     18  N   UNL     1      94.001 121.602 115.218  1.00  0.00    -0.361 N 
ATOM     19  C   UNL     1      91.971 120.309 114.400  1.00  0.00     0.027 A 
ATOM     20  C   UNL     1      92.862 118.629 121.357  1.00  0.00     0.106 C 
ATOM     21  H   UNL     1      94.412 121.882 114.338  1.00  0.00     0.166 HD
ENDBRANCH   3   4
BRANCH   2  22
ATOM     22  C   UNL     1      88.045 123.222 121.902  1.00  0.00     0.116 C 
ATOM     23  C   UNL     1      87.948 123.521 123.391  1.00  0.00     0.027 C 
ENDBRANCH   2  22
BRANCH   2  24
ATOM     24  C   UNL     1      90.477 123.275 121.344  1.00  0.00     0.116 C 
ATOM     25  C   UNL     1      90.605 123.779 119.912  1.00  0.00     0.027 C 
ENDBRANCH   2  24
TORSDOF 3
ENDMDL
MODEL 12
REMARK VINA RESULT:    -7.283      2.884      6.761
REMARK INTER + INTRA:          -9.014
REMARK INTER:                  -8.527
REMARK INTRA:                  -0.487
REMARK UNBOUND:                -0.454
REMARK SMILES CCN(CC)C(=O)[C@@H]1C=C2c3cccc4[nH]cc(c34)C[C@H]2N(C)C1
REMARK SMILES IDX 7 1 3 2 6 3 8 4 24 5 9 6 22 7 10 8 21 9 11 10 20 11 19 12
REMARK SMILES IDX 12 13 18 14 15 15 13 16 17 17 16 18 14 19 23 20 2 22 1 23
REMARK SMILES IDX 4 24 5 25
REMARK H PARENT 16 21
ROOT
ATOM      1  O   UNL     1      91.152 125.001 123.275  1.00  0.00    -0.274 OA
ATOM      2  N   UNL     1      89.221 126.100 122.733  1.00  0.00    -0.343 N 
ATOM      3  C   UNL     1      90.084 125.007 122.645  1.00  0.00     0.230 C 
ENDROOT
BRANCH   3   4
ATOM      4  C   UNL     1      89.765 123.774 121.779  1.00  0.00     0.116 C 
ATOM      5  C   UNL     1      89.665 122.486 122.619  1.00  0.00     0.102 C 
ATOM      6  C   UNL     1      90.672 123.646 120.583  1.00  0.00    -0.007 C 
ATOM      7  N   UNL     1      89.535 121.244 121.830  1.00  0.00    -0.298 NA
ATOM      8  C   UNL     1      91.099 122.437 120.176  1.00  0.00    -0.026 C 
ATOM      9  C   UNL     1      90.631 121.109 120.835  1.00  0.00     0.091 C 
ATOM     10  C   UNL     1      92.167 122.295 119.165  1.00  0.00    -0.011 A 
ATOM     11  C   UNL     1      91.833 120.296 121.443  1.00  0.00     0.061 C 
ATOM     12  C   UNL     1      93.006 121.193 119.408  1.00  0.00     0.010 A 
ATOM     13  C   UNL     1      92.459 123.108 118.070  1.00  0.00     0.009 A 
ATOM     14  C   UNL     1      92.938 120.220 120.436  1.00  0.00    -0.020 A 
ATOM     15  C   UNL     1      94.089 120.911 118.594  1.00  0.00     0.046 A 
ATOM     16  C   UNL     1      93.556 122.812 117.246  1.00  0.00     0.003 A 
ATOM     17  C   UNL     1      93.991 119.356 120.240  1.00  0.00     0.087 A 
ATOM     18  N   UNL     1      94.678 119.783 119.122  1.00  0.00    -0.361 N 
ATOM     19  C   UNL     1      94.395 121.710 117.490  1.00  0.00     0.027 A 
ATOM     20  C   UNL     1      88.223 121.166 121.180  1.00  0.00     0.106 C 
ATOM     21  H   UNL     1      95.498 119.332 118.740  1.00  0.00     0.166 HD
ENDBRANCH   3   4
BRANCH   2  22
ATOM     22  C   UNL     1      89.616 127.174 123.653  1.00  0.00     0.116 C 
ATOM     23  C   UNL     1      88.825 127.138 124.953  1.00  0.00     0.027 C 
ENDBRANCH   2  22
BRANCH   2  24
ATOM     24  C   UNL     1      87.860 126.178 122.184  1.00  0.00     0.116 C 
ATOM     25  C   UNL     1      87.615 127.452 121.386  1.00  0.00     0.027 C 
ENDBRANCH   2  24
TORSDOF 3
ENDMDL
MODEL 13
REMARK VINA RESULT:    -7.170      2.524      3.475
REMARK INTER + INTRA:          -8.881
REMARK INTER:                  -8.532
REMARK INTRA:                  -0.350
REMARK UNBOUND:                -0.454
REMARK SMILES CCN(CC)C(=O)[C@@H]1C=C2c3cccc4[nH]cc(c34)C[C@H]2N(C)C1
REMARK SMILES IDX 7 1 3 2 6 3 8 4 24 5 9 6 22 7 10 8 21 9 11 10 20 11 19 12
REMARK SMILES IDX 12 13 18 14 15 15 13 16 17 17 16 18 14 19 23 20 2 22 1 23
REMARK SMILES IDX 4 24 5 25
REMARK H PARENT 16 21
ROOT
ATOM      1  O   UNL     1      90.569 119.508 116.631  1.00  0.00    -0.274 OA
ATOM      2  N   UNL     1      92.532 120.576 116.148  1.00  0.00    -0.343 N 
ATOM      3  C   UNL     1      91.597 120.061 117.047  1.00  0.00     0.230 C 
ENDROOT
BRANCH   3   4
ATOM      4  C   UNL     1      91.786 120.150 118.572  1.00  0.00     0.116 C 
ATOM      5  C   UNL     1      91.027 119.036 119.317  1.00  0.00     0.102 C 
ATOM      6  C   UNL     1      91.520 121.529 119.117  1.00  0.00    -0.007 C 
ATOM      7  N   UNL     1      91.024 119.168 120.788  1.00  0.00    -0.298 NA
ATOM      8  C   UNL     1      90.904 121.689 120.302  1.00  0.00    -0.026 C 
ATOM      9  C   UNL     1      90.512 120.496 121.218  1.00  0.00     0.091 C 
ATOM     10  C   UNL     1      90.420 123.011 120.750  1.00  0.00    -0.011 A 
ATOM     11  C   UNL     1      88.961 120.435 121.475  1.00  0.00     0.061 C 
ATOM     12  C   UNL     1      89.222 122.936 121.480  1.00  0.00     0.010 A 
ATOM     13  C   UNL     1      90.961 124.276 120.513  1.00  0.00     0.009 A 
ATOM     14  C   UNL     1      88.468 121.796 121.857  1.00  0.00    -0.020 A 
ATOM     15  C   UNL     1      88.588 124.070 121.956  1.00  0.00     0.046 A 
ATOM     16  C   UNL     1      90.314 125.421 121.002  1.00  0.00     0.003 A 
ATOM     17  C   UNL     1      87.374 122.251 122.556  1.00  0.00     0.087 A 
ATOM     18  N   UNL     1      87.458 123.628 122.610  1.00  0.00    -0.361 N 
ATOM     19  C   UNL     1      89.114 125.344 121.732  1.00  0.00     0.027 A 
ATOM     20  C   UNL     1      92.356 118.914 121.344  1.00  0.00     0.106 C 
ATOM     21  H   UNL     1      86.788 124.231 123.068  1.00  0.00     0.166 HD
ENDBRANCH   3   4
BRANCH   2  22
ATOM     22  C   UNL     1      92.261 120.355 114.722  1.00  0.00     0.116 C 
ATOM     23  C   UNL     1      93.471 120.663 113.851  1.00  0.00     0.027 C 
ENDBRANCH   2  22
BRANCH   2  24
ATOM     24  C   UNL     1      93.863 121.102 116.485  1.00  0.00     0.116 C 
ATOM     25  C   UNL     1      93.861 122.606 116.726  1.00  0.00     0.027 C 
ENDBRANCH   2  24
TORSDOF 3
ENDMDL
MODEL 14
REMARK VINA RESULT:    -6.960      2.789      6.782
REMARK INTER + INTRA:          -8.635
REMARK INTER:                  -9.518
REMARK INTRA:                   0.883
REMARK UNBOUND:                -0.454
REMARK SMILES CCN(CC)C(=O)[C@@H]1C=C2c3cccc4[nH]cc(c34)C[C@H]2N(C)C1
REMARK SMILES IDX 7 1 3 2 6 3 8 4 24 5 9 6 22 7 10 8 21 9 11 10 20 11 19 12
REMARK SMILES IDX 12 13 18 14 15 15 13 16 17 17 16 18 14 19 23 20 2 22 1 23
REMARK SMILES IDX 4 24 5 25
REMARK H PARENT 16 21
ROOT
ATOM      1  O   UNL     1      90.706 120.150 119.006  1.00  0.00    -0.274 OA
ATOM      2  N   UNL     1      91.007 119.513 116.830  1.00  0.00    -0.343 N 
ATOM      3  C   UNL     1      91.473 120.031 118.040  1.00  0.00     0.230 C 
ENDROOT
BRANCH   3   4
ATOM      4  C   UNL     1      92.934 120.475 118.236  1.00  0.00     0.116 C 
ATOM      5  C   UNL     1      93.081 121.497 119.379  1.00  0.00     0.102 C 
ATOM      6  C   UNL     1      93.594 120.907 116.952  1.00  0.00    -0.007 C 
ATOM      7  N   UNL     1      94.427 122.094 119.503  1.00  0.00    -0.298 NA
ATOM      8  C   UNL     1      94.447 121.946 116.938  1.00  0.00    -0.026 C 
ATOM      9  C   UNL     1      94.876 122.705 118.225  1.00  0.00     0.091 C 
ATOM     10  C   UNL     1      94.922 122.539 115.670  1.00  0.00    -0.011 A 
ATOM     11  C   UNL     1      94.484 124.228 118.171  1.00  0.00     0.061 C 
ATOM     12  C   UNL     1      95.091 123.932 115.749  1.00  0.00     0.010 A 
ATOM     13  C   UNL     1      95.174 121.920 114.446  1.00  0.00     0.009 A 
ATOM     14  C   UNL     1      94.906 124.800 116.854  1.00  0.00    -0.020 A 
ATOM     15  C   UNL     1      95.495 124.678 114.655  1.00  0.00     0.046 A 
ATOM     16  C   UNL     1      95.588 122.682 113.343  1.00  0.00     0.003 A 
ATOM     17  C   UNL     1      95.193 126.073 116.417  1.00  0.00     0.087 A 
ATOM     18  N   UNL     1      95.549 125.987 115.087  1.00  0.00    -0.361 N 
ATOM     19  C   UNL     1      95.755 124.076 113.422  1.00  0.00     0.027 A 
ATOM     20  C   UNL     1      95.399 121.108 119.985  1.00  0.00     0.106 C 
ATOM     21  H   UNL     1      95.817 126.770 114.506  1.00  0.00     0.166 HD
ENDBRANCH   3   4
BRANCH   2  22
ATOM     22  C   UNL     1      89.610 119.061 116.806  1.00  0.00     0.116 C 
ATOM     23  C   UNL     1      89.149 118.688 115.404  1.00  0.00     0.027 C 
ENDBRANCH   2  22
BRANCH   2  24
ATOM     24  C   UNL     1      91.827 119.161 115.663  1.00  0.00     0.116 C 
ATOM     25  C   UNL     1      91.823 120.240 114.588  1.00  0.00     0.027 C 
ENDBRANCH   2  24
TORSDOF 3
ENDMDL
MODEL 15
REMARK VINA RESULT:    -6.869      1.966      2.758
REMARK INTER + INTRA:          -8.528
REMARK INTER:                  -9.048
REMARK INTRA:                   0.520
REMARK UNBOUND:                -0.454
REMARK SMILES CCN(CC)C(=O)[C@@H]1C=C2c3cccc4[nH]cc(c34)C[C@H]2N(C)C1
REMARK SMILES IDX 7 1 3 2 6 3 8 4 24 5 9 6 22 7 10 8 21 9 11 10 20 11 19 12
REMARK SMILES IDX 12 13 18 14 15 15 13 16 17 17 16 18 14 19 23 20 2 22 1 23
REMARK SMILES IDX 4 24 5 25
REMARK H PARENT 16 21
ROOT
ATOM      1  O   UNL     1      93.424 124.029 116.748  1.00  0.00    -0.274 OA
ATOM      2  N   UNL     1      93.441 121.988 115.717  1.00  0.00    -0.343 N 
ATOM      3  C   UNL     1      93.335 122.797 116.849  1.00  0.00     0.230 C 
ENDROOT
BRANCH   3   4
ATOM      4  C   UNL     1      93.107 122.216 118.256  1.00  0.00     0.116 C 
ATOM      5  C   UNL     1      92.368 120.865 118.212  1.00  0.00     0.102 C 
ATOM      6  C   UNL     1      92.493 123.208 119.210  1.00  0.00    -0.007 C 
ATOM      7  N   UNL     1      91.964 120.340 119.533  1.00  0.00    -0.298 NA
ATOM      8  C   UNL     1      91.575 122.814 120.109  1.00  0.00    -0.026 C 
ATOM      9  C   UNL     1      91.154 121.329 120.292  1.00  0.00     0.091 C 
ATOM     10  C   UNL     1      90.788 123.791 120.890  1.00  0.00    -0.011 A 
ATOM     11  C   UNL     1      89.619 121.113 120.019  1.00  0.00     0.061 C 
ATOM     12  C   UNL     1      89.469 123.366 121.125  1.00  0.00     0.010 A 
ATOM     13  C   UNL     1      91.163 125.048 121.366  1.00  0.00     0.009 A 
ATOM     14  C   UNL     1      88.835 122.153 120.757  1.00  0.00    -0.020 A 
ATOM     15  C   UNL     1      88.561 124.157 121.808  1.00  0.00     0.046 A 
ATOM     16  C   UNL     1      90.238 125.842 122.061  1.00  0.00     0.003 A 
ATOM     17  C   UNL     1      87.539 122.223 121.214  1.00  0.00     0.087 A 
ATOM     18  N   UNL     1      87.386 123.438 121.849  1.00  0.00    -0.361 N 
ATOM     19  C   UNL     1      88.918 125.417 122.295  1.00  0.00     0.027 A 
ATOM     20  C   UNL     1      93.130 119.909 120.310  1.00  0.00     0.106 C 
ATOM     21  H   UNL     1      86.533 123.759 122.288  1.00  0.00     0.166 HD
ENDBRANCH   3   4
BRANCH   2  22
ATOM     22  C   UNL     1      93.583 122.679 114.429  1.00  0.00     0.116 C 
ATOM     23  C   UNL     1      94.978 122.523 113.842  1.00  0.00     0.027 C 
ENDBRANCH   2  22
BRANCH   2  24
ATOM     24  C   UNL     1      93.191 120.541 115.656  1.00  0.00     0.116 C 
ATOM     25  C   UNL     1      92.155 120.162 114.606  1.00  0.00     0.027 C 
ENDBRANCH   2  24
TORSDOF 3
ENDMDL
MODEL 16
REMARK VINA RESULT:    -6.791      4.599      8.017
REMARK INTER + INTRA:          -8.436
REMARK INTER:                  -7.990
REMARK INTRA:                  -0.446
REMARK UNBOUND:                -0.454
REMARK SMILES CCN(CC)C(=O)[C@@H]1C=C2c3cccc4[nH]cc(c34)C[C@H]2N(C)C1
REMARK SMILES IDX 7 1 3 2 6 3 8 4 24 5 9 6 22 7 10 8 21 9 11 10 20 11 19 12
REMARK SMILES IDX 12 13 18 14 15 15 13 16 17 17 16 18 14 19 23 20 2 22 1 23
REMARK SMILES IDX 4 24 5 25
REMARK H PARENT 16 21
ROOT
ATOM      1  O   UNL     1      87.624 121.958 123.591  1.00  0.00    -0.274 OA
ATOM      2  N   UNL     1      88.366 120.359 122.134  1.00  0.00    -0.343 N 
ATOM      3  C   UNL     1      88.276 121.680 122.575  1.00  0.00     0.230 C 
ENDROOT
BRANCH   3   4
ATOM      4  C   UNL     1      88.968 122.841 121.837  1.00  0.00     0.116 C 
ATOM      5  C   UNL     1      90.427 123.030 122.294  1.00  0.00     0.102 C 
ATOM      6  C   UNL     1      88.161 124.113 121.857  1.00  0.00    -0.007 C 
ATOM      7  N   UNL     1      91.091 124.234 121.754  1.00  0.00    -0.298 NA
ATOM      8  C   UNL     1      88.768 125.306 121.992  1.00  0.00    -0.026 C 
ATOM      9  C   UNL     1      90.313 125.467 122.046  1.00  0.00     0.091 C 
ATOM     10  C   UNL     1      87.998 126.541 122.252  1.00  0.00    -0.011 A 
ATOM     11  C   UNL     1      90.792 126.118 123.396  1.00  0.00     0.061 C 
ATOM     12  C   UNL     1      88.671 127.436 123.101  1.00  0.00     0.010 A 
ATOM     13  C   UNL     1      86.722 126.894 121.811  1.00  0.00     0.009 A 
ATOM     14  C   UNL     1      89.957 127.326 123.686  1.00  0.00    -0.020 A 
ATOM     15  C   UNL     1      88.100 128.633 123.494  1.00  0.00     0.046 A 
ATOM     16  C   UNL     1      86.152 128.113 122.210  1.00  0.00     0.003 A 
ATOM     17  C   UNL     1      90.154 128.461 124.439  1.00  0.00     0.087 A 
ATOM     18  N   UNL     1      89.025 129.245 124.314  1.00  0.00    -0.361 N 
ATOM     19  C   UNL     1      86.826 129.008 123.060  1.00  0.00     0.027 A 
ATOM     20  C   UNL     1      91.343 124.100 120.316  1.00  0.00     0.106 C 
ATOM     21  H   UNL     1      88.892 130.143 124.757  1.00  0.00     0.166 HD
ENDBRANCH   3   4
BRANCH   2  22
ATOM     22  C   UNL     1      87.720 119.343 122.974  1.00  0.00     0.116 C 
ATOM     23  C   UNL     1      87.068 118.242 122.149  1.00  0.00     0.027 C 
ENDBRANCH   2  22
BRANCH   2  24
ATOM     24  C   UNL     1      89.232 119.859 121.056  1.00  0.00     0.116 C 
ATOM     25  C   UNL     1      90.609 119.438 121.549  1.00  0.00     0.027 C 
ENDBRANCH   2  24
TORSDOF 3
ENDMDL
MODEL 17
REMARK VINA RESULT:    -6.777      6.347      8.909
REMARK INTER + INTRA:          -8.419
REMARK INTER:                  -7.911
REMARK INTRA:                  -0.508
REMARK UNBOUND:                -0.454
REMARK SMILES CCN(CC)C(=O)[C@@H]1C=C2c3cccc4[nH]cc(c34)C[C@H]2N(C)C1
REMARK SMILES IDX 7 1 3 2 6 3 8 4 24 5 9 6 22 7 10 8 21 9 11 10 20 11 19 12
REMARK SMILES IDX 12 13 18 14 15 15 13 16 17 17 16 18 14 19 23 20 2 22 1 23
REMARK SMILES IDX 4 24 5 25
REMARK H PARENT 16 21
ROOT
ATOM      1  O   UNL     1      89.967 128.649 125.621  1.00  0.00    -0.274 OA
ATOM      2  N   UNL     1      90.145 130.520 124.318  1.00  0.00    -0.343 N 
ATOM      3  C   UNL     1      89.665 129.234 124.571  1.00  0.00     0.230 C 
ENDROOT
BRANCH   3   4
ATOM      4  C   UNL     1      88.754 128.487 123.580  1.00  0.00     0.116 C 
ATOM      5  C   UNL     1      87.287 128.457 124.052  1.00  0.00     0.102 C 
ATOM      6  C   UNL     1      89.291 127.134 123.193  1.00  0.00    -0.007 C 
ATOM      7  N   UNL     1      86.395 127.607 123.237  1.00  0.00    -0.298 NA
ATOM      8  C   UNL     1      88.459 126.091 123.024  1.00  0.00    -0.026 C 
ATOM      9  C   UNL     1      86.913 126.218 123.123  1.00  0.00     0.091 C 
ATOM     10  C   UNL     1      88.968 124.711 122.879  1.00  0.00    -0.011 A 
ATOM     11  C   UNL     1      86.318 125.311 124.262  1.00  0.00     0.061 C 
ATOM     12  C   UNL     1      88.132 123.755 123.481  1.00  0.00     0.010 A 
ATOM     13  C   UNL     1      90.146 124.264 122.281  1.00  0.00     0.009 A 
ATOM     14  C   UNL     1      86.896 123.934 124.150  1.00  0.00    -0.020 A 
ATOM     15  C   UNL     1      88.454 122.409 123.486  1.00  0.00     0.046 A 
ATOM     16  C   UNL     1      90.463 122.897 122.286  1.00  0.00     0.003 A 
ATOM     17  C   UNL     1      86.480 122.690 124.564  1.00  0.00     0.087 A 
ATOM     18  N   UNL     1      87.429 121.775 124.156  1.00  0.00    -0.361 N 
ATOM     19  C   UNL     1      89.627 121.940 122.889  1.00  0.00     0.027 A 
ATOM     20  C   UNL     1      86.171 128.195 121.913  1.00  0.00     0.106 C 
ATOM     21  H   UNL     1      87.382 120.779 124.320  1.00  0.00     0.166 HD
ENDBRANCH   3   4
BRANCH   2  22
ATOM     22  C   UNL     1      90.943 131.142 125.382  1.00  0.00     0.116 C 
ATOM     23  C   UNL     1      92.400 131.325 124.978  1.00  0.00     0.027 C 
ENDBRANCH   2  22
BRANCH   2  24
ATOM     24  C   UNL     1      89.741 131.396 123.209  1.00  0.00     0.116 C 
ATOM     25  C   UNL     1      88.566 132.297 123.563  1.00  0.00     0.027 C 
ENDBRANCH   2  24
TORSDOF 3
ENDMDL
MODEL 18
REMARK VINA RESULT:    -6.766      2.846      5.101
REMARK INTER + INTRA:          -8.406
REMARK INTER:                  -7.946
REMARK INTRA:                  -0.460
REMARK UNBOUND:                -0.454
REMARK SMILES CCN(CC)C(=O)[C@@H]1C=C2c3cccc4[nH]cc(c34)C[C@H]2N(C)C1
REMARK SMILES IDX 7 1 3 2 6 3 8 4 24 5 9 6 22 7 10 8 21 9 11 10 20 11 19 12
REMARK SMILES IDX 12 13 18 14 15 15 13 16 17 17 16 18 14 19 23 20 2 22 1 23
REMARK SMILES IDX 4 24 5 25
REMARK H PARENT 16 21
ROOT
ATOM      1  O   UNL     1      91.016 123.580 119.147  1.00  0.00    -0.274 OA
ATOM      2  N   UNL     1      92.781 122.128 119.062  1.00  0.00    -0.343 N 
ATOM      3  C   UNL     1      91.703 122.722 119.720  1.00  0.00     0.230 C 
ENDROOT
BRANCH   3   4
ATOM      4  C   UNL     1      91.316 122.353 121.164  1.00  0.00     0.116 C 
ATOM      5  C   UNL     1      90.326 121.174 121.215  1.00  0.00     0.102 C 
ATOM      6  C   UNL     1      90.879 123.544 121.977  1.00  0.00    -0.007 C 
ATOM      7  N   UNL     1      89.781 120.885 122.557  1.00  0.00    -0.298 NA
ATOM      8  C   UNL     1      89.871 123.435 122.860  1.00  0.00    -0.026 C 
ATOM      9  C   UNL     1      89.157 122.089 123.167  1.00  0.00     0.091 C 
ATOM     10  C   UNL     1      89.266 124.625 123.495  1.00  0.00    -0.011 A 
ATOM     11  C   UNL     1      87.621 122.145 122.834  1.00  0.00     0.061 C 
ATOM     12  C   UNL     1      87.882 124.492 123.699  1.00  0.00     0.010 A 
ATOM     13  C   UNL     1      89.867 125.830 123.862  1.00  0.00     0.009 A 
ATOM     14  C   UNL     1      87.033 123.392 123.419  1.00  0.00    -0.020 A 
ATOM     15  C   UNL     1      87.127 125.513 124.247  1.00  0.00     0.046 A 
ATOM     16  C   UNL     1      89.095 126.859 124.422  1.00  0.00     0.003 A 
ATOM     17  C   UNL     1      85.762 123.760 123.795  1.00  0.00     0.087 A 
ATOM     18  N   UNL     1      85.831 125.044 124.296  1.00  0.00    -0.361 N 
ATOM     19  C   UNL     1      87.710 126.725 124.625  1.00  0.00     0.027 A 
ATOM     20  C   UNL     1      90.811 120.324 123.436  1.00  0.00     0.106 C 
ATOM     21  H   UNL     1      85.045 125.570 124.653  1.00  0.00     0.166 HD
ENDBRANCH   3   4
BRANCH   2  22
ATOM     22  C   UNL     1      92.991 122.520 117.663  1.00  0.00     0.116 C 
ATOM     23  C   UNL     1      93.021 121.320 116.727  1.00  0.00     0.027 C 
ENDBRANCH   2  22
BRANCH   2  24
ATOM     24  C   UNL     1      93.573 120.989 119.546  1.00  0.00     0.116 C 
ATOM     25  C   UNL     1      95.003 121.372 119.906  1.00  0.00     0.027 C 
ENDBRANCH   2  24
TORSDOF 3
ENDMDL
MODEL 19
REMARK VINA RESULT:    -6.728      3.719      6.474
REMARK INTER + INTRA:          -8.362
REMARK INTER:                  -8.102
REMARK INTRA:                  -0.260
REMARK UNBOUND:                -0.454
REMARK SMILES CCN(CC)C(=O)[C@@H]1C=C2c3cccc4[nH]cc(c34)C[C@H]2N(C)C1
REMARK SMILES IDX 7 1 3 2 6 3 8 4 24 5 9 6 22 7 10 8 21 9 11 10 20 11 19 12
REMARK SMILES IDX 12 13 18 14 15 15 13 16 17 17 16 18 14 19 23 20 2 22 1 23
REMARK SMILES IDX 4 24 5 25
REMARK H PARENT 16 21
ROOT
ATOM      1  O   UNL     1      87.074 123.409 121.125  1.00  0.00    -0.274 OA
ATOM      2  N   UNL     1      89.183 124.193 121.530  1.00  0.00    -0.343 N 
ATOM      3  C   UNL     1      88.269 123.157 121.337  1.00  0.00     0.230 C 
ENDROOT
BRANCH   3   4
ATOM      4  C   UNL     1      88.685 121.675 121.376  1.00  0.00     0.116 C 
ATOM      5  C   UNL     1      89.572 121.354 122.594  1.00  0.00     0.102 C 
ATOM      6  C   UNL     1      89.257 121.191 120.069  1.00  0.00    -0.007 C 
ATOM      7  N   UNL     1      90.148 119.994 122.596  1.00  0.00    -0.298 NA
ATOM      8  C   UNL     1      90.290 120.330 120.052  1.00  0.00    -0.026 C 
ATOM      9  C   UNL     1      90.898 119.714 121.344  1.00  0.00     0.091 C 
ATOM     10  C   UNL     1      91.021 120.023 118.805  1.00  0.00    -0.011 A 
ATOM     11  C   UNL     1      92.418 120.083 121.515  1.00  0.00     0.061 C 
ATOM     12  C   UNL     1      92.396 119.822 119.014  1.00  0.00     0.010 A 
ATOM     13  C   UNL     1      90.543 119.954 117.496  1.00  0.00     0.009 A 
ATOM     14  C   UNL     1      93.135 119.838 120.224  1.00  0.00    -0.020 A 
ATOM     15  C   UNL     1      93.260 119.560 117.965  1.00  0.00     0.046 A 
ATOM     16  C   UNL     1      91.424 119.683 116.439  1.00  0.00     0.003 A 
ATOM     17  C   UNL     1      94.448 119.591 119.895  1.00  0.00     0.087 A 
ATOM     18  N   UNL     1      94.511 119.423 118.527  1.00  0.00    -0.361 N 
ATOM     19  C   UNL     1      92.800 119.482 116.648  1.00  0.00     0.027 A 
ATOM     20  C   UNL     1      89.112 118.982 122.825  1.00  0.00     0.106 C 
ATOM     21  H   UNL     1      95.355 119.225 118.006  1.00  0.00     0.166 HD
ENDBRANCH   3   4
BRANCH   2  22
ATOM     22  C   UNL     1      88.664 125.559 121.392  1.00  0.00     0.116 C 
ATOM     23  C   UNL     1      88.461 126.237 122.740  1.00  0.00     0.027 C 
ENDBRANCH   2  22
BRANCH   2  24
ATOM     24  C   UNL     1      90.644 124.057 121.621  1.00  0.00     0.116 C 
ATOM     25  C   UNL     1      91.316 123.949 120.259  1.00  0.00     0.027 C 
ENDBRANCH   2  24
TORSDOF 3
ENDMDL
