MODEL 1
REMARK VINA RESULT:    -9.794      0.000      0.000
REMARK INTER + INTRA:         -11.606
REMARK INTER:                 -11.512
REMARK INTRA:                  -0.094
REMARK UNBOUND:                -0.094
REMARK SMILES CCN(CC)C(=O)[C@@H]1C=C2c3cccc4[nH]cc(c34)C[C@H]2N(C)C1
REMARK SMILES IDX 7 1 3 2 6 3 8 4 24 5 9 6 22 7 10 8 21 9 11 10 20 11 19 12
REMARK SMILES IDX 12 13 18 14 15 15 13 16 17 17 16 18 14 19 23 20 2 22 1 23
REMARK SMILES IDX 4 24 5 25
REMARK H PARENT 16 21
ROOT
ATOM      1  O   UNL     1     110.249 137.205 125.102  1.00  0.00    -0.274 OA
ATOM      2  N   UNL     1     109.206 139.063 125.932  1.00  0.00    -0.343 N 
ATOM      3  C   UNL     1     109.218 137.718 125.561  1.00  0.00     0.230 C 
ENDROOT
BRANCH   3   4
ATOM      4  C   UNL     1     107.979 136.815 125.699  1.00  0.00     0.116 C 
ATOM      5  C   UNL     1     107.540 136.652 127.167  1.00  0.00     0.102 C 
ATOM      6  C   UNL     1     108.119 135.508 124.963  1.00  0.00    -0.007 C 
ATOM      7  N   UNL     1     106.467 135.661 127.383  1.00  0.00    -0.298 NA
ATOM      8  C   UNL     1     107.630 134.371 125.489  1.00  0.00    -0.026 C 
ATOM      9  C   UNL     1     106.824 134.333 126.817  1.00  0.00     0.091 C 
ATOM     10  C   UNL     1     107.955 133.050 124.913  1.00  0.00    -0.011 A 
ATOM     11  C   UNL     1     107.523 133.438 127.906  1.00  0.00     0.061 C 
ATOM     12  C   UNL     1     108.085 132.047 125.888  1.00  0.00     0.010 A 
ATOM     13  C   UNL     1     108.182 132.699 123.582  1.00  0.00     0.009 A 
ATOM     14  C   UNL     1     107.914 132.129 127.293  1.00  0.00    -0.020 A 
ATOM     15  C   UNL     1     108.424 130.747 125.553  1.00  0.00     0.046 A 
ATOM     16  C   UNL     1     108.520 131.378 123.250  1.00  0.00     0.003 A 
ATOM     17  C   UNL     1     108.159 130.874 127.802  1.00  0.00     0.087 A 
ATOM     18  N   UNL     1     108.464 130.047 126.740  1.00  0.00    -0.361 N 
ATOM     19  C   UNL     1     108.650 130.375 124.226  1.00  0.00     0.027 A 
ATOM     20  C   UNL     1     105.191 136.137 126.841  1.00  0.00     0.106 C 
ATOM     21  H   UNL     1     108.685 129.063 126.818  1.00  0.00     0.166 HD
ENDBRANCH   3   4
BRANCH   2  22
ATOM     22  C   UNL     1     110.478 139.786 125.817  1.00  0.00     0.116 C 
ATOM     23  C   UNL     1     110.293 141.194 125.269  1.00  0.00     0.027 C 
ENDBRANCH   2  22
BRANCH   2  24
ATOM     24  C   UNL     1     108.122 139.759 126.639  1.00  0.00     0.116 C 
ATOM     25  C   UNL     1     108.435 140.003 128.110  1.00  0.00     0.027 C 
ENDBRANCH   2  24
TORSDOF 3
ENDMDL
MODEL 2
REMARK VINA RESULT:    -9.132      2.519      4.763
REMARK INTER + INTRA:         -10.828
REMARK INTER:                 -10.482
REMARK INTRA:                  -0.346
REMARK UNBOUND:                -0.094
REMARK SMILES CCN(CC)C(=O)[C@@H]1C=C2c3cccc4[nH]cc(c34)C[C@H]2N(C)C1
REMARK SMILES IDX 7 1 3 2 6 3 8 4 24 5 9 6 22 7 10 8 21 9 11 10 20 11 19 12
REMARK SMILES IDX 12 13 18 14 15 15 13 16 17 17 16 18 14 19 23 20 2 22 1 23
REMARK SMILES IDX 4 24 5 25
REMARK H PARENT 16 21
ROOT
ATOM      1  O   UNL     1     103.329 135.628 126.702  1.00  0.00    -0.274 OA
ATOM      2  N   UNL     1     103.588 136.339 128.860  1.00  0.00    -0.343 N 
ATOM      3  C   UNL     1     104.096 135.967 127.615  1.00  0.00     0.230 C 
ENDROOT
BRANCH   3   4
ATOM      4  C   UNL     1     105.606 135.959 127.311  1.00  0.00     0.116 C 
ATOM      5  C   UNL     1     105.924 136.573 125.935  1.00  0.00     0.102 C 
ATOM      6  C   UNL     1     106.241 134.611 127.532  1.00  0.00    -0.007 C 
ATOM      7  N   UNL     1     107.332 136.436 125.509  1.00  0.00    -0.298 NA
ATOM      8  C   UNL     1     107.202 134.164 126.703  1.00  0.00    -0.026 C 
ATOM      9  C   UNL     1     107.779 135.019 125.540  1.00  0.00     0.091 C 
ATOM     10  C   UNL     1     107.673 132.764 126.749  1.00  0.00    -0.011 A 
ATOM     11  C   UNL     1     107.554 134.337 124.139  1.00  0.00     0.061 C 
ATOM     12  C   UNL     1     107.998 132.256 125.479  1.00  0.00     0.010 A 
ATOM     13  C   UNL     1     107.791 131.908 127.844  1.00  0.00     0.009 A 
ATOM     14  C   UNL     1     107.967 132.900 124.217  1.00  0.00    -0.020 A 
ATOM     15  C   UNL     1     108.424 130.951 125.306  1.00  0.00     0.046 A 
ATOM     16  C   UNL     1     108.228 130.587 127.661  1.00  0.00     0.003 A 
ATOM     17  C   UNL     1     108.370 131.973 123.283  1.00  0.00     0.087 A 
ATOM     18  N   UNL     1     108.645 130.799 123.954  1.00  0.00    -0.361 N 
ATOM     19  C   UNL     1     108.552 130.079 126.390  1.00  0.00     0.027 A 
ATOM     20  C   UNL     1     108.213 137.283 126.319  1.00  0.00     0.106 C 
ATOM     21  H   UNL     1     108.967 129.945 123.519  1.00  0.00     0.166 HD
ENDBRANCH   3   4
BRANCH   2  22
ATOM     22  C   UNL     1     102.126 136.373 128.988  1.00  0.00     0.116 C 
ATOM     23  C   UNL     1     101.679 136.794 130.381  1.00  0.00     0.027 C 
ENDBRANCH   2  22
BRANCH   2  24
ATOM     24  C   UNL     1     104.354 136.920 129.973  1.00  0.00     0.116 C 
ATOM     25  C   UNL     1     104.776 138.360 129.713  1.00  0.00     0.027 C 
ENDBRANCH   2  24
TORSDOF 3
ENDMDL
MODEL 3
REMARK VINA RESULT:    -8.631      1.678      7.019
REMARK INTER + INTRA:         -10.239
REMARK INTER:                  -9.753
REMARK INTRA:                  -0.486
REMARK UNBOUND:                -0.094
REMARK SMILES CCN(CC)C(=O)[C@@H]1C=C2c3cccc4[nH]cc(c34)C[C@H]2N(C)C1
REMARK SMILES IDX 7 1 3 2 6 3 8 4 24 5 9 6 22 7 10 8 21 9 11 10 20 11 19 12
REMARK SMILES IDX 12 13 18 14 15 15 13 16 17 17 16 18 14 19 23 20 2 22 1 23
REMARK SMILES IDX 4 24 5 25
REMARK H PARENT 16 21
ROOT
ATOM      1  O   UNL     1     107.222 134.316 123.585  1.00  0.00    -0.274 OA
ATOM      2  N   UNL     1     108.059 132.310 124.295  1.00  0.00    -0.343 N 
ATOM      3  C   UNL     1     107.722 133.649 124.502  1.00  0.00     0.230 C 
ENDROOT
BRANCH   3   4
ATOM      4  C   UNL     1     107.948 134.355 125.851  1.00  0.00     0.116 C 
ATOM      5  C   UNL     1     106.640 134.506 126.652  1.00  0.00     0.102 C 
ATOM      6  C   UNL     1     108.727 135.638 125.720  1.00  0.00    -0.007 C 
ATOM      7  N   UNL     1     106.758 135.329 127.874  1.00  0.00    -0.298 NA
ATOM      8  C   UNL     1     108.418 136.706 126.476  1.00  0.00    -0.026 C 
ATOM      9  C   UNL     1     107.322 136.672 127.578  1.00  0.00     0.091 C 
ATOM     10  C   UNL     1     108.999 138.038 126.208  1.00  0.00    -0.011 A 
ATOM     11  C   UNL     1     106.171 137.707 127.298  1.00  0.00     0.061 C 
ATOM     12  C   UNL     1     108.099 139.087 126.461  1.00  0.00     0.010 A 
ATOM     13  C   UNL     1     110.262 138.366 125.715  1.00  0.00     0.009 A 
ATOM     14  C   UNL     1     106.772 139.035 126.956  1.00  0.00    -0.020 A 
ATOM     15  C   UNL     1     108.442 140.409 126.236  1.00  0.00     0.046 A 
ATOM     16  C   UNL     1     110.604 139.709 125.494  1.00  0.00     0.003 A 
ATOM     17  C   UNL     1     106.316 140.332 127.020  1.00  0.00     0.087 A 
ATOM     18  N   UNL     1     107.335 141.153 126.584  1.00  0.00    -0.361 N 
ATOM     19  C   UNL     1     109.703 140.759 125.748  1.00  0.00     0.027 A 
ATOM     20  C   UNL     1     107.547 134.641 128.900  1.00  0.00     0.106 C 
ATOM     21  H   UNL     1     107.283 142.162 126.528  1.00  0.00     0.166 HD
ENDBRANCH   3   4
BRANCH   2  22
ATOM     22  C   UNL     1     107.720 131.744 122.984  1.00  0.00     0.116 C 
ATOM     23  C   UNL     1     108.696 130.658 122.555  1.00  0.00     0.027 C 
ENDBRANCH   2  22
BRANCH   2  24
ATOM     24  C   UNL     1     108.497 131.356 125.324  1.00  0.00     0.116 C 
ATOM     25  C   UNL     1     107.338 130.747 126.101  1.00  0.00     0.027 C 
ENDBRANCH   2  24
TORSDOF 3
ENDMDL
MODEL 4
REMARK VINA RESULT:    -8.585      4.643      5.573
REMARK INTER + INTRA:         -10.185
REMARK INTER:                  -9.898
REMARK INTRA:                  -0.287
REMARK UNBOUND:                -0.094
REMARK SMILES CCN(CC)C(=O)[C@@H]1C=C2c3cccc4[nH]cc(c34)C[C@H]2N(C)C1
REMARK SMILES IDX 7 1 3 2 6 3 8 4 24 5 9 6 22 7 10 8 21 9 11 10 20 11 19 12
REMARK SMILES IDX 12 13 18 14 15 15 13 16 17 17 16 18 14 19 23 20 2 22 1 23
REMARK SMILES IDX 4 24 5 25
REMARK H PARENT 16 21
ROOT
ATOM      1  O   UNL     1     109.681 137.818 126.221  1.00  0.00    -0.274 OA
ATOM      2  N   UNL     1     110.529 139.744 125.326  1.00  0.00    -0.343 N 
ATOM      3  C   UNL     1     109.509 139.012 125.935  1.00  0.00     0.230 C 
ENDROOT
BRANCH   3   4
ATOM      4  C   UNL     1     108.143 139.634 126.278  1.00  0.00     0.116 C 
ATOM      5  C   UNL     1     108.192 140.460 127.578  1.00  0.00     0.102 C 
ATOM      6  C   UNL     1     107.017 138.634 126.242  1.00  0.00    -0.007 C 
ATOM      7  N   UNL     1     106.878 140.937 128.055  1.00  0.00    -0.298 NA
ATOM      8  C   UNL     1     106.022 138.691 127.144  1.00  0.00    -0.026 C 
ATOM      9  C   UNL     1     105.912 139.818 128.210  1.00  0.00     0.091 C 
ATOM     10  C   UNL     1     105.039 137.597 127.283  1.00  0.00    -0.011 A 
ATOM     11  C   UNL     1     105.954 139.249 129.677  1.00  0.00     0.061 C 
ATOM     12  C   UNL     1     104.635 137.391 128.613  1.00  0.00     0.010 A 
ATOM     13  C   UNL     1     104.516 136.751 126.304  1.00  0.00     0.009 A 
ATOM     14  C   UNL     1     105.007 138.094 129.786  1.00  0.00    -0.020 A 
ATOM     15  C   UNL     1     103.747 136.386 128.956  1.00  0.00     0.046 A 
ATOM     16  C   UNL     1     103.612 135.738 126.659  1.00  0.00     0.003 A 
ATOM     17  C   UNL     1     104.344 137.503 130.837  1.00  0.00     0.087 A 
ATOM     18  N   UNL     1     103.584 136.472 130.322  1.00  0.00    -0.361 N 
ATOM     19  C   UNL     1     103.209 135.532 127.991  1.00  0.00     0.027 A 
ATOM     20  C   UNL     1     106.341 141.977 127.173  1.00  0.00     0.106 C 
ATOM     21  H   UNL     1     102.987 135.865 130.867  1.00  0.00     0.166 HD
ENDBRANCH   3   4
BRANCH   2  22
ATOM     22  C   UNL     1     111.805 139.047 125.124  1.00  0.00     0.116 C 
ATOM     23  C   UNL     1     112.616 139.647 123.984  1.00  0.00     0.027 C 
ENDBRANCH   2  22
BRANCH   2  24
ATOM     24  C   UNL     1     110.533 141.194 125.084  1.00  0.00     0.116 C 
ATOM     25  C   UNL     1     111.043 141.992 126.276  1.00  0.00     0.027 C 
ENDBRANCH   2  24
TORSDOF 3
ENDMDL
MODEL 5
REMARK VINA RESULT:    -8.412      1.728      2.287
REMARK INTER + INTRA:          -9.981
REMARK INTER:                  -9.996
REMARK INTRA:                   0.015
REMARK UNBOUND:                -0.094
REMARK SMILES CCN(CC)C(=O)[C@@H]1C=C2c3cccc4[nH]cc(c34)C[C@H]2N(C)C1
REMARK SMILES IDX 7 1 3 2 6 3 8 4 24 5 9 6 22 7 10 8 21 9 11 10 20 11 19 12
REMARK SMILES IDX 12 13 18 14 15 15 13 16 17 17 16 18 14 19 23 20 2 22 1 23
REMARK SMILES IDX 4 24 5 25
REMARK H PARENT 16 21
ROOT
ATOM      1  O   UNL     1     105.971 139.769 127.022  1.00  0.00    -0.274 OA
ATOM      2  N   UNL     1     107.972 138.662 126.997  1.00  0.00    -0.343 N 
ATOM      3  C   UNL     1     106.577 138.689 126.981  1.00  0.00     0.230 C 
ENDROOT
BRANCH   3   4
ATOM      4  C   UNL     1     105.731 137.404 126.914  1.00  0.00     0.116 C 
ATOM      5  C   UNL     1     105.423 136.839 128.314  1.00  0.00     0.102 C 
ATOM      6  C   UNL     1     106.291 136.381 125.960  1.00  0.00    -0.007 C 
ATOM      7  N   UNL     1     104.766 135.516 128.313  1.00  0.00    -0.298 NA
ATOM      8  C   UNL     1     106.243 135.071 126.258  1.00  0.00    -0.026 C 
ATOM      9  C   UNL     1     105.543 134.518 127.531  1.00  0.00     0.091 C 
ATOM     10  C   UNL     1     106.987 134.070 125.465  1.00  0.00    -0.011 A 
ATOM     11  C   UNL     1     106.542 133.739 128.463  1.00  0.00     0.061 C 
ATOM     12  C   UNL     1     107.486 133.015 126.248  1.00  0.00     0.010 A 
ATOM     13  C   UNL     1     107.278 134.064 124.100  1.00  0.00     0.009 A 
ATOM     14  C   UNL     1     107.342 132.780 127.638  1.00  0.00    -0.020 A 
ATOM     15  C   UNL     1     108.243 131.996 125.697  1.00  0.00     0.046 A 
ATOM     16  C   UNL     1     108.041 133.024 123.548  1.00  0.00     0.003 A 
ATOM     17  C   UNL     1     108.022 131.618 127.921  1.00  0.00     0.087 A 
ATOM     18  N   UNL     1     108.561 131.152 126.739  1.00  0.00    -0.361 N 
ATOM     19  C   UNL     1     108.542 131.970 124.332  1.00  0.00     0.027 A 
ATOM     20  C   UNL     1     103.388 135.610 127.824  1.00  0.00     0.106 C 
ATOM     21  H   UNL     1     109.111 130.308 126.646  1.00  0.00     0.166 HD
ENDBRANCH   3   4
BRANCH   2  22
ATOM     22  C   UNL     1     108.652 139.963 126.988  1.00  0.00     0.116 C 
ATOM     23  C   UNL     1     109.578 140.139 128.184  1.00  0.00     0.027 C 
ENDBRANCH   2  22
BRANCH   2  24
ATOM     24  C   UNL     1     108.821 137.481 126.787  1.00  0.00     0.116 C 
ATOM     25  C   UNL     1     109.583 137.526 125.469  1.00  0.00     0.027 C 
ENDBRANCH   2  24
TORSDOF 3
ENDMDL
MODEL 6
REMARK VINA RESULT:    -8.238      1.875      2.646
REMARK INTER + INTRA:          -9.777
REMARK INTER:                 -10.045
REMARK INTRA:                   0.268
REMARK UNBOUND:                -0.094
REMARK SMILES CCN(CC)C(=O)[C@@H]1C=C2c3cccc4[nH]cc(c34)C[C@H]2N(C)C1
REMARK SMILES IDX 7 1 3 2 6 3 8 4 24 5 9 6 22 7 10 8 21 9 11 10 20 11 19 12
REMARK SMILES IDX 12 13 18 14 15 15 13 16 17 17 16 18 14 19 23 20 2 22 1 23
REMARK SMILES IDX 4 24 5 25
REMARK H PARENT 16 21
ROOT
ATOM      1  O   UNL     1     107.019 141.087 126.989  1.00  0.00    -0.274 OA
ATOM      2  N   UNL     1     108.812 139.681 127.179  1.00  0.00    -0.343 N 
ATOM      3  C   UNL     1     107.440 139.930 127.128  1.00  0.00     0.230 C 
ENDROOT
BRANCH   3   4
ATOM      4  C   UNL     1     106.395 138.805 127.241  1.00  0.00     0.116 C 
ATOM      5  C   UNL     1     106.237 138.303 128.689  1.00  0.00     0.102 C 
ATOM      6  C   UNL     1     106.612 137.700 126.240  1.00  0.00    -0.007 C 
ATOM      7  N   UNL     1     105.381 137.108 128.837  1.00  0.00    -0.298 NA
ATOM      8  C   UNL     1     106.399 136.417 126.581  1.00  0.00    -0.026 C 
ATOM      9  C   UNL     1     105.840 135.993 127.968  1.00  0.00     0.091 C 
ATOM     10  C   UNL     1     106.825 135.303 125.708  1.00  0.00    -0.011 A 
ATOM     11  C   UNL     1     106.840 135.060 128.747  1.00  0.00     0.061 C 
ATOM     12  C   UNL     1     107.268 134.182 126.430  1.00  0.00     0.010 A 
ATOM     13  C   UNL     1     106.879 135.245 124.315  1.00  0.00     0.009 A 
ATOM     14  C   UNL     1     107.322 133.978 127.832  1.00  0.00    -0.020 A 
ATOM     15  C   UNL     1     107.744 133.049 125.793  1.00  0.00     0.046 A 
ATOM     16  C   UNL     1     107.357 134.091 123.677  1.00  0.00     0.003 A 
ATOM     17  C   UNL     1     107.839 132.719 128.035  1.00  0.00     0.087 A 
ATOM     18  N   UNL     1     108.089 132.167 126.795  1.00  0.00    -0.361 N 
ATOM     19  C   UNL     1     107.802 132.969 124.400  1.00  0.00     0.027 A 
ATOM     20  C   UNL     1     103.975 137.431 128.579  1.00  0.00     0.106 C 
ATOM     21  H   UNL     1     108.469 131.243 126.638  1.00  0.00     0.166 HD
ENDBRANCH   3   4
BRANCH   2  22
ATOM     22  C   UNL     1     109.696 140.837 126.985  1.00  0.00     0.116 C 
ATOM     23  C   UNL     1     110.057 141.047 125.521  1.00  0.00     0.027 C 
ENDBRANCH   2  22
BRANCH   2  24
ATOM     24  C   UNL     1     109.456 138.359 127.172  1.00  0.00     0.116 C 
ATOM     25  C   UNL     1     109.775 137.863 125.768  1.00  0.00     0.027 C 
ENDBRANCH   2  24
TORSDOF 3
ENDMDL
MODEL 7
REMARK VINA RESULT:    -7.995      3.183      5.123
REMARK INTER + INTRA:          -9.492
REMARK INTER:                  -9.024
REMARK INTRA:                  -0.468
REMARK UNBOUND:                -0.094
REMARK SMILES CCN(CC)C(=O)[C@@H]1C=C2c3cccc4[nH]cc(c34)C[C@H]2N(C)C1
REMARK SMILES IDX 7 1 3 2 6 3 8 4 24 5 9 6 22 7 10 8 21 9 11 10 20 11 19 12
REMARK SMILES IDX 12 13 18 14 15 15 13 16 17 17 16 18 14 19 23 20 2 22 1 23
REMARK SMILES IDX 4 24 5 25
REMARK H PARENT 16 21
ROOT
ATOM      1  O   UNL     1     103.635 138.383 127.370  1.00  0.00    -0.274 OA
ATOM      2  N   UNL     1     103.650 139.494 129.369  1.00  0.00    -0.343 N 
ATOM      3  C   UNL     1     104.275 138.753 128.364  1.00  0.00     0.230 C 
ENDROOT
BRANCH   3   4
ATOM      4  C   UNL     1     105.763 138.364 128.435  1.00  0.00     0.116 C 
ATOM      5  C   UNL     1     106.613 139.133 127.405  1.00  0.00     0.102 C 
ATOM      6  C   UNL     1     105.983 136.874 128.406  1.00  0.00    -0.007 C 
ATOM      7  N   UNL     1     108.015 138.680 127.302  1.00  0.00    -0.298 NA
ATOM      8  C   UNL     1     107.023 136.350 127.734  1.00  0.00    -0.026 C 
ATOM      9  C   UNL     1     108.102 137.221 127.032  1.00  0.00     0.091 C 
ATOM     10  C   UNL     1     107.132 134.896 127.489  1.00  0.00    -0.011 A 
ATOM     11  C   UNL     1     108.166 136.947 125.484  1.00  0.00     0.061 C 
ATOM     12  C   UNL     1     107.703 134.594 126.241  1.00  0.00     0.010 A 
ATOM     13  C   UNL     1     106.717 133.833 128.291  1.00  0.00     0.009 A 
ATOM     14  C   UNL     1     108.202 135.470 125.244  1.00  0.00    -0.020 A 
ATOM     15  C   UNL     1     107.857 133.289 125.809  1.00  0.00     0.046 A 
ATOM     16  C   UNL     1     106.881 132.511 127.848  1.00  0.00     0.003 A 
ATOM     17  C   UNL     1     108.650 134.684 124.207  1.00  0.00     0.087 A 
ATOM     18  N   UNL     1     108.438 133.367 124.561  1.00  0.00    -0.361 N 
ATOM     19  C   UNL     1     107.452 132.210 126.599  1.00  0.00     0.027 A 
ATOM     20  C   UNL     1     108.776 139.039 128.502  1.00  0.00     0.106 C 
ATOM     21  H   UNL     1     108.676 132.568 123.989  1.00  0.00     0.166 HD
ENDBRANCH   3   4
BRANCH   2  22
ATOM     22  C   UNL     1     102.247 139.858 129.137  1.00  0.00     0.116 C 
ATOM     23  C   UNL     1     101.288 139.014 129.965  1.00  0.00     0.027 C 
ENDBRANCH   2  22
BRANCH   2  24
ATOM     24  C   UNL     1     104.311 140.140 130.511  1.00  0.00     0.116 C 
ATOM     25  C   UNL     1     103.954 141.614 130.647  1.00  0.00     0.027 C 
ENDBRANCH   2  24
TORSDOF 3
ENDMDL
MODEL 8
REMARK VINA RESULT:    -7.832      4.682      8.149
REMARK INTER + INTRA:          -9.300
REMARK INTER:                  -8.919
REMARK INTRA:                  -0.381
REMARK UNBOUND:                -0.094
REMARK SMILES CCN(CC)C(=O)[C@@H]1C=C2c3cccc4[nH]cc(c34)C[C@H]2N(C)C1
REMARK SMILES IDX 7 1 3 2 6 3 8 4 24 5 9 6 22 7 10 8 21 9 11 10 20 11 19 12
REMARK SMILES IDX 12 13 18 14 15 15 13 16 17 17 16 18 14 19 23 20 2 22 1 23
REMARK SMILES IDX 4 24 5 25
REMARK H PARENT 16 21
ROOT
ATOM      1  O   UNL     1     109.638 129.224 124.691  1.00  0.00    -0.274 OA
ATOM      2  N   UNL     1     108.293 130.901 125.472  1.00  0.00    -0.343 N 
ATOM      3  C   UNL     1     108.884 130.174 124.437  1.00  0.00     0.230 C 
ENDROOT
BRANCH   3   4
ATOM      4  C   UNL     1     108.637 130.506 122.954  1.00  0.00     0.116 C 
ATOM      5  C   UNL     1     108.273 129.255 122.133  1.00  0.00     0.102 C 
ATOM      6  C   UNL     1     109.744 131.327 122.344  1.00  0.00    -0.007 C 
ATOM      7  N   UNL     1     108.195 129.476 120.674  1.00  0.00    -0.298 NA
ATOM      8  C   UNL     1     110.141 131.105 121.078  1.00  0.00    -0.026 C 
ATOM      9  C   UNL     1     109.448 130.075 120.143  1.00  0.00     0.091 C 
ATOM     10  C   UNL     1     111.369 131.722 120.534  1.00  0.00    -0.011 A 
ATOM     11  C   UNL     1     110.439 128.951 119.664  1.00  0.00     0.061 C 
ATOM     12  C   UNL     1     112.052 130.881 119.639  1.00  0.00     0.010 A 
ATOM     13  C   UNL     1     111.932 132.966 120.818  1.00  0.00     0.009 A 
ATOM     14  C   UNL     1     111.708 129.584 119.182  1.00  0.00    -0.020 A 
ATOM     15  C   UNL     1     113.244 131.262 119.049  1.00  0.00     0.046 A 
ATOM     16  C   UNL     1     113.139 133.348 120.212  1.00  0.00     0.003 A 
ATOM     17  C   UNL     1     112.704 129.184 118.321  1.00  0.00     0.087 A 
ATOM     18  N   UNL     1     113.626 130.208 118.247  1.00  0.00    -0.361 N 
ATOM     19  C   UNL     1     113.822 132.505 119.317  1.00  0.00     0.027 A 
ATOM     20  C   UNL     1     107.031 130.296 120.325  1.00  0.00     0.106 C 
ATOM     21  H   UNL     1     114.465 130.192 117.683  1.00  0.00     0.166 HD
ENDBRANCH   3   4
BRANCH   2  22
ATOM     22  C   UNL     1     108.557 130.429 126.837  1.00  0.00     0.116 C 
ATOM     23  C   UNL     1     108.598 131.570 127.844  1.00  0.00     0.027 C 
ENDBRANCH   2  22
BRANCH   2  24
ATOM     24  C   UNL     1     107.258 131.934 125.327  1.00  0.00     0.116 C 
ATOM     25  C   UNL     1     107.818 133.276 124.877  1.00  0.00     0.027 C 
ENDBRANCH   2  24
TORSDOF 3
ENDMDL
MODEL 9
REMARK VINA RESULT:    -7.797      3.357      6.054
REMARK INTER + INTRA:          -9.259
REMARK INTER:                  -8.938
REMARK INTRA:                  -0.321
REMARK UNBOUND:                -0.094
REMARK SMILES CCN(CC)C(=O)[C@@H]1C=C2c3cccc4[nH]cc(c34)C[C@H]2N(C)C1
REMARK SMILES IDX 7 1 3 2 6 3 8 4 24 5 9 6 22 7 10 8 21 9 11 10 20 11 19 12
REMARK SMILES IDX 12 13 18 14 15 15 13 16 17 17 16 18 14 19 23 20 2 22 1 23
REMARK SMILES IDX 4 24 5 25
REMARK H PARENT 16 21
ROOT
ATOM      1  O   UNL     1     106.641 139.964 127.015  1.00  0.00    -0.274 OA
ATOM      2  N   UNL     1     108.866 139.551 126.687  1.00  0.00    -0.343 N 
ATOM      3  C   UNL     1     107.601 139.192 127.155  1.00  0.00     0.230 C 
ENDROOT
BRANCH   3   4
ATOM      4  C   UNL     1     107.335 137.848 127.856  1.00  0.00     0.116 C 
ATOM      5  C   UNL     1     107.314 136.671 126.862  1.00  0.00     0.102 C 
ATOM      6  C   UNL     1     106.136 137.889 128.768  1.00  0.00    -0.007 C 
ATOM      7  N   UNL     1     106.890 135.380 127.444  1.00  0.00    -0.298 NA
ATOM      8  C   UNL     1     105.309 136.831 128.858  1.00  0.00    -0.026 C 
ATOM      9  C   UNL     1     105.570 135.490 128.118  1.00  0.00     0.091 C 
ATOM     10  C   UNL     1     104.008 136.924 129.553  1.00  0.00    -0.011 A 
ATOM     11  C   UNL     1     104.408 135.131 127.119  1.00  0.00     0.061 C 
ATOM     12  C   UNL     1     103.007 136.150 128.942  1.00  0.00     0.010 A 
ATOM     13  C   UNL     1     103.656 137.684 130.668  1.00  0.00     0.009 A 
ATOM     14  C   UNL     1     103.091 135.298 127.812  1.00  0.00    -0.020 A 
ATOM     15  C   UNL     1     101.709 136.132 129.421  1.00  0.00     0.046 A 
ATOM     16  C   UNL     1     102.339 137.657 131.151  1.00  0.00     0.003 A 
ATOM     17  C   UNL     1     101.835 134.774 127.610  1.00  0.00     0.087 A 
ATOM     18  N   UNL     1     101.008 135.284 128.590  1.00  0.00    -0.361 N 
ATOM     19  C   UNL     1     101.337 136.883 130.538  1.00  0.00     0.027 A 
ATOM     20  C   UNL     1     107.906 134.856 128.361  1.00  0.00     0.106 C 
ATOM     21  H   UNL     1     100.026 135.066 128.690  1.00  0.00     0.166 HD
ENDBRANCH   3   4
BRANCH   2  22
ATOM     22  C   UNL     1     108.962 140.830 125.972  1.00  0.00     0.116 C 
ATOM     23  C   UNL     1     110.201 141.620 126.368  1.00  0.00     0.027 C 
ENDBRANCH   2  22
BRANCH   2  24
ATOM     24  C   UNL     1     110.050 138.682 126.630  1.00  0.00     0.116 C 
ATOM     25  C   UNL     1     110.336 138.161 125.227  1.00  0.00     0.027 C 
ENDBRANCH   2  24
TORSDOF 3
ENDMDL
MODEL 10
REMARK VINA RESULT:    -7.765      3.199      7.210
REMARK INTER + INTRA:          -9.221
REMARK INTER:                  -8.823
REMARK INTRA:                  -0.398
REMARK UNBOUND:                -0.094
REMARK SMILES CCN(CC)C(=O)[C@@H]1C=C2c3cccc4[nH]cc(c34)C[C@H]2N(C)C1
REMARK SMILES IDX 7 1 3 2 6 3 8 4 24 5 9 6 22 7 10 8 21 9 11 10 20 11 19 12
REMARK SMILES IDX 12 13 18 14 15 15 13 16 17 17 16 18 14 19 23 20 2 22 1 23
REMARK SMILES IDX 4 24 5 25
REMARK H PARENT 16 21
ROOT
ATOM      1  O   UNL     1     108.341 133.938 128.796  1.00  0.00    -0.274 OA
ATOM      2  N   UNL     1     107.758 132.760 126.924  1.00  0.00    -0.343 N 
ATOM      3  C   UNL     1     107.739 133.912 127.713  1.00  0.00     0.230 C 
ENDROOT
BRANCH   3   4
ATOM      4  C   UNL     1     106.987 135.186 127.289  1.00  0.00     0.116 C 
ATOM      5  C   UNL     1     107.624 136.459 127.879  1.00  0.00     0.102 C 
ATOM      6  C   UNL     1     105.500 135.094 127.519  1.00  0.00    -0.007 C 
ATOM      7  N   UNL     1     106.850 137.697 127.656  1.00  0.00    -0.298 NA
ATOM      8  C   UNL     1     104.807 136.165 127.946  1.00  0.00    -0.026 C 
ATOM      9  C   UNL     1     105.452 137.565 128.144  1.00  0.00     0.091 C 
ATOM     10  C   UNL     1     103.407 136.047 128.404  1.00  0.00    -0.011 A 
ATOM     11  C   UNL     1     105.336 138.063 129.632  1.00  0.00     0.061 C 
ATOM     12  C   UNL     1     103.106 136.913 129.469  1.00  0.00     0.010 A 
ATOM     13  C   UNL     1     102.402 135.189 127.956  1.00  0.00     0.009 A 
ATOM     14  C   UNL     1     103.930 137.872 130.109  1.00  0.00    -0.020 A 
ATOM     15  C   UNL     1     101.856 136.926 130.063  1.00  0.00     0.046 A 
ATOM     16  C   UNL     1     101.136 135.212 128.561  1.00  0.00     0.003 A 
ATOM     17  C   UNL     1     103.171 138.457 131.097  1.00  0.00     0.087 A 
ATOM     18  N   UNL     1     101.919 137.879 131.058  1.00  0.00    -0.361 N 
ATOM     19  C   UNL     1     100.835 136.079 129.627  1.00  0.00     0.027 A 
ATOM     20  C   UNL     1     106.878 138.090 126.244  1.00  0.00     0.106 C 
ATOM     21  H   UNL     1     101.151 138.119 131.670  1.00  0.00     0.166 HD
ENDBRANCH   3   4
BRANCH   2  22
ATOM     22  C   UNL     1     108.576 131.644 127.414  1.00  0.00     0.116 C 
ATOM     23  C   UNL     1     108.243 130.335 126.713  1.00  0.00     0.027 C 
ENDBRANCH   2  22
BRANCH   2  24
ATOM     24  C   UNL     1     107.239 132.637 125.554  1.00  0.00     0.116 C 
ATOM     25  C   UNL     1     108.122 133.326 124.522  1.00  0.00     0.027 C 
ENDBRANCH   2  24
TORSDOF 3
ENDMDL
MODEL 11
REMARK VINA RESULT:    -7.731      2.142      4.479
REMARK INTER + INTRA:          -9.181
REMARK INTER:                  -9.166
REMARK INTRA:                  -0.015
REMARK UNBOUND:                -0.094
REMARK SMILES CCN(CC)C(=O)[C@@H]1C=C2c3cccc4[nH]cc(c34)C[C@H]2N(C)C1
REMARK SMILES IDX 7 1 3 2 6 3 8 4 24 5 9 6 22 7 10 8 21 9 11 10 20 11 19 12
REMARK SMILES IDX 12 13 18 14 15 15 13 16 17 17 16 18 14 19 23 20 2 22 1 23
REMARK SMILES IDX 4 24 5 25
REMARK H PARENT 16 21
ROOT
ATOM      1  O   UNL     1     105.721 138.411 129.157  1.00  0.00    -0.274 OA
ATOM      2  N   UNL     1     104.489 136.913 127.946  1.00  0.00    -0.343 N 
ATOM      3  C   UNL     1     105.699 137.504 128.314  1.00  0.00     0.230 C 
ENDROOT
BRANCH   3   4
ATOM      4  C   UNL     1     107.045 137.069 127.705  1.00  0.00     0.116 C 
ATOM      5  C   UNL     1     107.196 137.533 126.244  1.00  0.00     0.102 C 
ATOM      6  C   UNL     1     107.335 135.605 127.907  1.00  0.00    -0.007 C 
ATOM      7  N   UNL     1     108.385 137.000 125.548  1.00  0.00    -0.298 NA
ATOM      8  C   UNL     1     107.933 134.887 126.939  1.00  0.00    -0.026 C 
ATOM      9  C   UNL     1     108.438 135.515 125.610  1.00  0.00     0.091 C 
ATOM     10  C   UNL     1     108.016 133.413 127.009  1.00  0.00    -0.011 A 
ATOM     11  C   UNL     1     107.733 134.883 124.353  1.00  0.00     0.061 C 
ATOM     12  C   UNL     1     107.902 132.799 125.750  1.00  0.00     0.010 A 
ATOM     13  C   UNL     1     108.147 132.589 128.127  1.00  0.00     0.009 A 
ATOM     14  C   UNL     1     107.759 133.391 124.470  1.00  0.00    -0.020 A 
ATOM     15  C   UNL     1     107.918 131.423 125.608  1.00  0.00     0.046 A 
ATOM     16  C   UNL     1     108.168 131.194 127.975  1.00  0.00     0.003 A 
ATOM     17  C   UNL     1     107.683 132.363 123.559  1.00  0.00     0.087 A 
ATOM     18  N   UNL     1     107.782 131.178 124.258  1.00  0.00    -0.361 N 
ATOM     19  C   UNL     1     108.053 130.580 126.714  1.00  0.00     0.027 A 
ATOM     20  C   UNL     1     109.617 137.592 126.078  1.00  0.00     0.106 C 
ATOM     21  H   UNL     1     107.761 130.256 123.843  1.00  0.00     0.166 HD
ENDBRANCH   3   4
BRANCH   2  22
ATOM     22  C   UNL     1     103.292 137.373 128.660  1.00  0.00     0.116 C 
ATOM     23  C   UNL     1     103.166 136.741 130.040  1.00  0.00     0.027 C 
ENDBRANCH   2  22
BRANCH   2  24
ATOM     24  C   UNL     1     104.326 135.726 127.095  1.00  0.00     0.116 C 
ATOM     25  C   UNL     1     104.303 136.060 125.609  1.00  0.00     0.027 C 
ENDBRANCH   2  24
TORSDOF 3
ENDMDL
MODEL 12
REMARK VINA RESULT:    -7.672      3.421      4.682
REMARK INTER + INTRA:          -9.112
REMARK INTER:                  -8.890
REMARK INTRA:                  -0.222
REMARK UNBOUND:                -0.094
REMARK SMILES CCN(CC)C(=O)[C@@H]1C=C2c3cccc4[nH]cc(c34)C[C@H]2N(C)C1
REMARK SMILES IDX 7 1 3 2 6 3 8 4 24 5 9 6 22 7 10 8 21 9 11 10 20 11 19 12
REMARK SMILES IDX 12 13 18 14 15 15 13 16 17 17 16 18 14 19 23 20 2 22 1 23
REMARK SMILES IDX 4 24 5 25
REMARK H PARENT 16 21
ROOT
ATOM      1  O   UNL     1     105.614 139.447 128.185  1.00  0.00    -0.274 OA
ATOM      2  N   UNL     1     103.700 140.021 129.298  1.00  0.00    -0.343 N 
ATOM      3  C   UNL     1     104.466 139.138 128.535  1.00  0.00     0.230 C 
ENDROOT
BRANCH   3   4
ATOM      4  C   UNL     1     103.937 137.760 128.095  1.00  0.00     0.116 C 
ATOM      5  C   UNL     1     103.721 136.814 129.291  1.00  0.00     0.102 C 
ATOM      6  C   UNL     1     104.747 137.149 126.981  1.00  0.00    -0.007 C 
ATOM      7  N   UNL     1     103.383 135.423 128.923  1.00  0.00    -0.298 NA
ATOM      8  C   UNL     1     104.988 135.826 126.958  1.00  0.00    -0.026 C 
ATOM      9  C   UNL     1     104.391 134.840 128.000  1.00  0.00     0.091 C 
ATOM     10  C   UNL     1     105.966 135.235 126.021  1.00  0.00    -0.011 A 
ATOM     11  C   UNL     1     105.511 134.085 128.808  1.00  0.00     0.061 C 
ATOM     12  C   UNL     1     106.667 134.151 126.576  1.00  0.00     0.010 A 
ATOM     13  C   UNL     1     106.296 135.630 124.724  1.00  0.00     0.009 A 
ATOM     14  C   UNL     1     106.535 133.553 127.854  1.00  0.00    -0.020 A 
ATOM     15  C   UNL     1     107.653 133.485 125.869  1.00  0.00     0.046 A 
ATOM     16  C   UNL     1     107.293 134.946 124.012  1.00  0.00     0.003 A 
ATOM     17  C   UNL     1     107.452 132.529 127.915  1.00  0.00     0.087 A 
ATOM     18  N   UNL     1     108.121 132.496 126.709  1.00  0.00    -0.361 N 
ATOM     19  C   UNL     1     107.995 133.861 124.568  1.00  0.00     0.027 A 
ATOM     20  C   UNL     1     102.036 135.341 128.351  1.00  0.00     0.106 C 
ATOM     21  H   UNL     1     108.851 131.839 126.469  1.00  0.00     0.166 HD
ENDBRANCH   3   4
BRANCH   2  22
ATOM     22  C   UNL     1     104.356 141.268 129.709  1.00  0.00     0.116 C 
ATOM     23  C   UNL     1     104.028 141.644 131.148  1.00  0.00     0.027 C 
ENDBRANCH   2  22
BRANCH   2  24
ATOM     24  C   UNL     1     102.402 139.729 129.922  1.00  0.00     0.116 C 
ATOM     25  C   UNL     1     101.222 140.070 129.023  1.00  0.00     0.027 C 
ENDBRANCH   2  24
TORSDOF 3
ENDMDL
MODEL 13
REMARK VINA RESULT:    -7.494      2.783      7.545
REMARK INTER + INTRA:          -8.902
REMARK INTER:                  -8.420
REMARK INTRA:                  -0.483
REMARK UNBOUND:                -0.094
REMARK SMILES CCN(CC)C(=O)[C@@H]1C=C2c3cccc4[nH]cc(c34)C[C@H]2N(C)C1
REMARK SMILES IDX 7 1 3 2 6 3 8 4 24 5 9 6 22 7 10 8 21 9 11 10 20 11 19 12
REMARK SMILES IDX 12 13 18 14 15 15 13 16 17 17 16 18 14 19 23 20 2 22 1 23
REMARK SMILES IDX 4 24 5 25
REMARK H PARENT 16 21
ROOT
ATOM      1  O   UNL     1     107.885 133.590 128.367  1.00  0.00    -0.274 OA
ATOM      2  N   UNL     1     107.526 131.899 126.870  1.00  0.00    -0.343 N 
ATOM      3  C   UNL     1     107.340 133.207 127.322  1.00  0.00     0.230 C 
ENDROOT
BRANCH   3   4
ATOM      4  C   UNL     1     106.466 134.222 126.564  1.00  0.00     0.116 C 
ATOM      5  C   UNL     1     107.306 135.339 125.916  1.00  0.00     0.102 C 
ATOM      6  C   UNL     1     105.313 134.735 127.388  1.00  0.00    -0.007 C 
ATOM      7  N   UNL     1     106.517 136.439 125.324  1.00  0.00    -0.298 NA
ATOM      8  C   UNL     1     104.932 136.022 127.303  1.00  0.00    -0.026 C 
ATOM      9  C   UNL     1     105.574 137.030 126.310  1.00  0.00     0.091 C 
ATOM     10  C   UNL     1     103.971 136.608 128.260  1.00  0.00    -0.011 A 
ATOM     11  C   UNL     1     106.240 138.247 127.052  1.00  0.00     0.061 C 
ATOM     12  C   UNL     1     104.256 137.949 128.568  1.00  0.00     0.010 A 
ATOM     13  C   UNL     1     102.886 136.008 128.901  1.00  0.00     0.009 A 
ATOM     14  C   UNL     1     105.285 138.788 128.070  1.00  0.00    -0.020 A 
ATOM     15  C   UNL     1     103.494 138.665 129.475  1.00  0.00     0.046 A 
ATOM     16  C   UNL     1     102.115 136.743 129.815  1.00  0.00     0.003 A 
ATOM     17  C   UNL     1     105.141 140.009 128.687  1.00  0.00     0.087 A 
ATOM     18  N   UNL     1     104.054 139.924 129.533  1.00  0.00    -0.361 N 
ATOM     19  C   UNL     1     102.402 138.084 130.124  1.00  0.00     0.027 A 
ATOM     20  C   UNL     1     105.808 135.992 124.121  1.00  0.00     0.106 C 
ATOM     21  H   UNL     1     103.711 140.677 130.113  1.00  0.00     0.166 HD
ENDBRANCH   3   4
BRANCH   2  22
ATOM     22  C   UNL     1     108.444 131.061 127.650  1.00  0.00     0.116 C 
ATOM     23  C   UNL     1     108.079 129.585 127.578  1.00  0.00     0.027 C 
ENDBRANCH   2  22
BRANCH   2  24
ATOM     24  C   UNL     1     107.088 131.357 125.576  1.00  0.00     0.116 C 
ATOM     25  C   UNL     1     108.066 131.654 124.447  1.00  0.00     0.027 C 
ENDBRANCH   2  24
TORSDOF 3
ENDMDL
MODEL 14
REMARK VINA RESULT:    -7.327      2.451      6.794
REMARK INTER + INTRA:          -8.706
REMARK INTER:                  -8.406
REMARK INTRA:                  -0.300
REMARK UNBOUND:                -0.094
REMARK SMILES CCN(CC)C(=O)[C@@H]1C=C2c3cccc4[nH]cc(c34)C[C@H]2N(C)C1
REMARK SMILES IDX 7 1 3 2 6 3 8 4 24 5 9 6 22 7 10 8 21 9 11 10 20 11 19 12
REMARK SMILES IDX 12 13 18 14 15 15 13 16 17 17 16 18 14 19 23 20 2 22 1 23
REMARK SMILES IDX 4 24 5 25
REMARK H PARENT 16 21
ROOT
ATOM      1  O   UNL     1     106.598 130.435 123.187  1.00  0.00    -0.274 OA
ATOM      2  N   UNL     1     108.737 130.709 122.425  1.00  0.00    -0.343 N 
ATOM      3  C   UNL     1     107.765 130.778 123.424  1.00  0.00     0.230 C 
ENDROOT
BRANCH   3   4
ATOM      4  C   UNL     1     108.083 131.274 124.847  1.00  0.00     0.116 C 
ATOM      5  C   UNL     1     107.013 130.838 125.865  1.00  0.00     0.102 C 
ATOM      6  C   UNL     1     108.400 132.746 124.898  1.00  0.00    -0.007 C 
ATOM      7  N   UNL     1     107.166 131.428 127.211  1.00  0.00    -0.298 NA
ATOM      8  C   UNL     1     107.977 133.501 125.928  1.00  0.00    -0.026 C 
ATOM      9  C   UNL     1     107.228 132.912 127.155  1.00  0.00     0.091 C 
ATOM     10  C   UNL     1     108.064 134.976 125.893  1.00  0.00    -0.011 A 
ATOM     11  C   UNL     1     105.792 133.533 127.324  1.00  0.00     0.061 C 
ATOM     12  C   UNL     1     106.982 135.602 126.534  1.00  0.00     0.010 A 
ATOM     13  C   UNL     1     109.025 135.789 125.291  1.00  0.00     0.009 A 
ATOM     14  C   UNL     1     105.882 135.023 127.214  1.00  0.00    -0.020 A 
ATOM     15  C   UNL     1     106.861 136.980 126.577  1.00  0.00     0.046 A 
ATOM     16  C   UNL     1     108.898 137.185 125.343  1.00  0.00     0.003 A 
ATOM     17  C   UNL     1     105.095 136.060 127.660  1.00  0.00     0.087 A 
ATOM     18  N   UNL     1     105.698 137.239 127.270  1.00  0.00    -0.361 N 
ATOM     19  C   UNL     1     107.815 137.811 125.984  1.00  0.00     0.027 A 
ATOM     20  C   UNL     1     108.338 130.878 127.899  1.00  0.00     0.106 C 
ATOM     21  H   UNL     1     105.342 138.164 127.466  1.00  0.00     0.166 HD
ENDBRANCH   3   4
BRANCH   2  22
ATOM     22  C   UNL     1     108.312 130.146 121.137  1.00  0.00     0.116 C 
ATOM     23  C   UNL     1     109.406 129.314 120.483  1.00  0.00     0.027 C 
ENDBRANCH   2  22
BRANCH   2  24
ATOM     24  C   UNL     1     110.181 130.919 122.601  1.00  0.00     0.116 C 
ATOM     25  C   UNL     1     110.694 132.152 121.868  1.00  0.00     0.027 C 
ENDBRANCH   2  24
TORSDOF 3
ENDMDL
MODEL 15
REMARK VINA RESULT:    -7.006      1.938      6.915
REMARK INTER + INTRA:          -8.329
REMARK INTER:                  -8.090
REMARK INTRA:                  -0.239
REMARK UNBOUND:                -0.094
REMARK SMILES CCN(CC)C(=O)[C@@H]1C=C2c3cccc4[nH]cc(c34)C[C@H]2N(C)C1
REMARK SMILES IDX 7 1 3 2 6 3 8 4 24 5 9 6 22 7 10 8 21 9 11 10 20 11 19 12
REMARK SMILES IDX 12 13 18 14 15 15 13 16 17 17 16 18 14 19 23 20 2 22 1 23
REMARK SMILES IDX 4 24 5 25
REMARK H PARENT 16 21
ROOT
ATOM      1  O   UNL     1     108.595 134.078 123.641  1.00  0.00    -0.274 OA
ATOM      2  N   UNL     1     108.442 131.838 124.073  1.00  0.00    -0.343 N 
ATOM      3  C   UNL     1     108.338 133.177 124.452  1.00  0.00     0.230 C 
ENDROOT
BRANCH   3   4
ATOM      4  C   UNL     1     107.908 133.599 125.868  1.00  0.00     0.116 C 
ATOM      5  C   UNL     1     106.425 133.285 126.142  1.00  0.00     0.102 C 
ATOM      6  C   UNL     1     108.295 135.017 126.201  1.00  0.00    -0.007 C 
ATOM      7  N   UNL     1     105.905 133.823 127.415  1.00  0.00    -0.298 NA
ATOM      8  C   UNL     1     107.471 135.799 126.921  1.00  0.00    -0.026 C 
ATOM      9  C   UNL     1     106.134 135.287 127.526  1.00  0.00     0.091 C 
ATOM     10  C   UNL     1     107.709 137.251 127.062  1.00  0.00    -0.011 A 
ATOM     11  C   UNL     1     104.894 136.085 126.977  1.00  0.00     0.061 C 
ATOM     12  C   UNL     1     106.520 137.999 127.098  1.00  0.00     0.010 A 
ATOM     13  C   UNL     1     108.918 137.945 127.118  1.00  0.00     0.009 A 
ATOM     14  C   UNL     1     105.175 137.553 127.056  1.00  0.00    -0.020 A 
ATOM     15  C   UNL     1     106.532 139.379 127.189  1.00  0.00     0.046 A 
ATOM     16  C   UNL     1     108.922 139.345 127.215  1.00  0.00     0.003 A 
ATOM     17  C   UNL     1     104.379 138.673 127.114  1.00  0.00     0.087 A 
ATOM     18  N   UNL     1     105.210 139.772 127.196  1.00  0.00    -0.361 N 
ATOM     19  C   UNL     1     107.732 140.093 127.250  1.00  0.00     0.027 A 
ATOM     20  C   UNL     1     106.479 133.113 128.562  1.00  0.00     0.106 C 
ATOM     21  H   UNL     1     104.898 140.731 127.256  1.00  0.00     0.166 HD
ENDBRANCH   3   4
BRANCH   2  22
ATOM     22  C   UNL     1     108.790 131.579 122.670  1.00  0.00     0.116 C 
ATOM     23  C   UNL     1     108.055 130.371 122.107  1.00  0.00     0.027 C 
ENDBRANCH   2  22
BRANCH   2  24
ATOM     24  C   UNL     1     108.013 130.675 124.863  1.00  0.00     0.116 C 
ATOM     25  C   UNL     1     109.168 129.988 125.581  1.00  0.00     0.027 C 
ENDBRANCH   2  24
TORSDOF 3
ENDMDL
MODEL 16
REMARK VINA RESULT:    -6.919      2.221      7.450
REMARK INTER + INTRA:          -8.226
REMARK INTER:                  -7.826
REMARK INTRA:                  -0.400
REMARK UNBOUND:                -0.094
REMARK SMILES CCN(CC)C(=O)[C@@H]1C=C2c3cccc4[nH]cc(c34)C[C@H]2N(C)C1
REMARK SMILES IDX 7 1 3 2 6 3 8 4 24 5 9 6 22 7 10 8 21 9 11 10 20 11 19 12
REMARK SMILES IDX 12 13 18 14 15 15 13 16 17 17 16 18 14 19 23 20 2 22 1 23
REMARK SMILES IDX 4 24 5 25
REMARK H PARENT 16 21
ROOT
ATOM      1  O   UNL     1     108.070 133.064 128.231  1.00  0.00    -0.274 OA
ATOM      2  N   UNL     1     107.641 131.510 126.610  1.00  0.00    -0.343 N 
ATOM      3  C   UNL     1     107.552 132.799 127.137  1.00  0.00     0.230 C 
ENDROOT
BRANCH   3   4
ATOM      4  C   UNL     1     106.821 133.939 126.404  1.00  0.00     0.116 C 
ATOM      5  C   UNL     1     107.695 134.577 125.307  1.00  0.00     0.102 C 
ATOM      6  C   UNL     1     106.206 134.942 127.344  1.00  0.00    -0.007 C 
ATOM      7  N   UNL     1     107.119 135.787 124.687  1.00  0.00    -0.298 NA
ATOM      8  C   UNL     1     106.216 136.254 127.047  1.00  0.00    -0.026 C 
ATOM      9  C   UNL     1     106.768 136.812 125.705  1.00  0.00     0.091 C 
ATOM     10  C   UNL     1     105.838 137.276 128.044  1.00  0.00    -0.011 A 
ATOM     11  C   UNL     1     107.968 137.805 125.928  1.00  0.00     0.061 C 
ATOM     12  C   UNL     1     106.591 138.456 127.929  1.00  0.00     0.010 A 
ATOM     13  C   UNL     1     104.895 137.202 129.070  1.00  0.00     0.009 A 
ATOM     14  C   UNL     1     107.601 138.792 126.992  1.00  0.00    -0.020 A 
ATOM     15  C   UNL     1     106.413 139.520 128.796  1.00  0.00     0.046 A 
ATOM     16  C   UNL     1     104.717 138.286 129.942  1.00  0.00     0.003 A 
ATOM     17  C   UNL     1     108.034 140.060 127.305  1.00  0.00     0.087 A 
ATOM     18  N   UNL     1     107.307 140.491 128.397  1.00  0.00    -0.361 N 
ATOM     19  C   UNL     1     105.471 139.467 129.826  1.00  0.00     0.027 A 
ATOM     20  C   UNL     1     105.959 135.454 123.855  1.00  0.00     0.106 C 
ATOM     21  H   UNL     1     107.411 141.392 128.842  1.00  0.00     0.166 HD
ENDBRANCH   3   4
BRANCH   2  22
ATOM     22  C   UNL     1     108.431 130.541 127.379  1.00  0.00     0.116 C 
ATOM     23  C   UNL     1     107.793 129.159 127.394  1.00  0.00     0.027 C 
ENDBRANCH   2  22
BRANCH   2  24
ATOM     24  C   UNL     1     107.228 131.092 125.262  1.00  0.00     0.116 C 
ATOM     25  C   UNL     1     108.394 131.003 124.286  1.00  0.00     0.027 C 
ENDBRANCH   2  24
TORSDOF 3
ENDMDL
