MODEL 1
REMARK VINA RESULT:    -9.122      0.000      0.000
REMARK INTER + INTRA:         -11.177
REMARK INTER:                 -10.722
REMARK INTRA:                  -0.455
REMARK UNBOUND:                -0.455
REMARK SMILES CCN(CC)C(=O)[C@@H]1C=C2c3cccc4[nH]cc(c34)C[C@H]2N(C)C1
REMARK SMILES IDX 7 1 3 2 6 3 8 4 24 5 9 6 22 7 10 8 21 9 11 10 20 11 19 12
REMARK SMILES IDX 12 13 18 14 15 15 13 16 17 17 16 18 14 19 23 20 2 22 1 23
REMARK SMILES IDX 4 24 5 25
REMARK H PARENT 16 21
ROOT
ATOM      1  O   UNL     1      40.222  33.980  61.227  1.00  0.00    -0.274 OA
ATOM      2  N   UNL     1      38.796  35.763  61.096  1.00  0.00    -0.343 N 
ATOM      3  C   UNL     1      39.095  34.409  60.938  1.00  0.00     0.230 C 
ENDROOT
BRANCH   3   4
ATOM      4  C   UNL     1      38.065  33.395  60.408  1.00  0.00     0.116 C 
ATOM      5  C   UNL     1      37.831  32.236  61.396  1.00  0.00     0.102 C 
ATOM      6  C   UNL     1      38.360  32.939  59.003  1.00  0.00    -0.007 C 
ATOM      7  N   UNL     1      36.989  31.141  60.873  1.00  0.00    -0.298 NA
ATOM      8  C   UNL     1      38.149  31.661  58.640  1.00  0.00    -0.026 C 
ATOM      9  C   UNL     1      37.517  30.606  59.591  1.00  0.00     0.091 C 
ATOM     10  C   UNL     1      38.645  31.131  57.353  1.00  0.00    -0.011 A 
ATOM     11  C   UNL     1      38.486  29.394  59.854  1.00  0.00     0.061 C 
ATOM     12  C   UNL     1      39.064  29.792  57.440  1.00  0.00     0.010 A 
ATOM     13  C   UNL     1      38.782  31.779  56.125  1.00  0.00     0.009 A 
ATOM     14  C   UNL     1      39.039  28.911  58.549  1.00  0.00    -0.020 A 
ATOM     15  C   UNL     1      39.596  29.125  56.350  1.00  0.00     0.046 A 
ATOM     16  C   UNL     1      39.317  31.094  55.024  1.00  0.00     0.003 A 
ATOM     17  C   UNL     1      39.565  27.713  58.123  1.00  0.00     0.087 A 
ATOM     18  N   UNL     1      39.896  27.854  56.791  1.00  0.00    -0.361 N 
ATOM     19  C   UNL     1      39.737  29.755  55.111  1.00  0.00     0.027 A 
ATOM     20  C   UNL     1      35.594  31.571  60.728  1.00  0.00     0.106 C 
ATOM     21  H   UNL     1      40.301  27.129  56.215  1.00  0.00     0.166 HD
ENDBRANCH   3   4
BRANCH   2  22
ATOM     22  C   UNL     1      39.848  36.603  61.681  1.00  0.00     0.116 C 
ATOM     23  C   UNL     1      39.319  37.957  62.132  1.00  0.00     0.027 C 
ENDBRANCH   2  22
BRANCH   2  24
ATOM     24  C   UNL     1      37.469  36.381  60.956  1.00  0.00     0.116 C 
ATOM     25  C   UNL     1      37.140  36.761  59.518  1.00  0.00     0.027 C 
ENDBRANCH   2  24
TORSDOF 3
ENDMDL
MODEL 2
REMARK VINA RESULT:    -8.515      0.881      1.119
REMARK INTER + INTRA:         -10.464
REMARK INTER:                 -10.079
REMARK INTRA:                  -0.385
REMARK UNBOUND:                -0.455
REMARK SMILES CCN(CC)C(=O)[C@@H]1C=C2c3cccc4[nH]cc(c34)C[C@H]2N(C)C1
REMARK SMILES IDX 7 1 3 2 6 3 8 4 24 5 9 6 22 7 10 8 21 9 11 10 20 11 19 12
REMARK SMILES IDX 12 13 18 14 15 15 13 16 17 17 16 18 14 19 23 20 2 22 1 23
REMARK SMILES IDX 4 24 5 25
REMARK H PARENT 16 21
ROOT
ATOM      1  O   UNL     1      40.696  33.236  61.388  1.00  0.00    -0.274 OA
ATOM      2  N   UNL     1      39.600  35.212  61.743  1.00  0.00    -0.343 N 
ATOM      3  C   UNL     1      39.653  33.896  61.280  1.00  0.00     0.230 C 
ENDROOT
BRANCH   3   4
ATOM      4  C   UNL     1      38.443  33.208  60.622  1.00  0.00     0.116 C 
ATOM      5  C   UNL     1      37.907  32.041  61.474  1.00  0.00     0.102 C 
ATOM      6  C   UNL     1      38.687  32.841  59.182  1.00  0.00    -0.007 C 
ATOM      7  N   UNL     1      36.861  31.229  60.818  1.00  0.00    -0.298 NA
ATOM      8  C   UNL     1      38.207  31.690  58.678  1.00  0.00    -0.026 C 
ATOM      9  C   UNL     1      37.310  30.719  59.496  1.00  0.00     0.091 C 
ATOM     10  C   UNL     1      38.625  31.192  57.351  1.00  0.00    -0.011 A 
ATOM     11  C   UNL     1      37.963  29.296  59.645  1.00  0.00     0.061 C 
ATOM     12  C   UNL     1      38.723  29.791  57.300  1.00  0.00     0.010 A 
ATOM     13  C   UNL     1      38.960  31.912  56.204  1.00  0.00     0.009 A 
ATOM     14  C   UNL     1      38.449  28.832  58.307  1.00  0.00    -0.020 A 
ATOM     15  C   UNL     1      39.136  29.133  56.155  1.00  0.00     0.046 A 
ATOM     16  C   UNL     1      39.373  31.237  55.045  1.00  0.00     0.003 A 
ATOM     17  C   UNL     1      38.706  27.594  57.764  1.00  0.00     0.087 A 
ATOM     18  N   UNL     1      39.119  27.789  56.461  1.00  0.00    -0.361 N 
ATOM     19  C   UNL     1      39.472  29.835  54.995  1.00  0.00     0.027 A 
ATOM     20  C   UNL     1      35.609  31.982  60.694  1.00  0.00     0.106 C 
ATOM     21  H   UNL     1      39.372  27.051  55.818  1.00  0.00     0.166 HD
ENDBRANCH   3   4
BRANCH   2  22
ATOM     22  C   UNL     1      40.803  35.718  62.416  1.00  0.00     0.116 C 
ATOM     23  C   UNL     1      40.821  35.376  63.899  1.00  0.00     0.027 C 
ENDBRANCH   2  22
BRANCH   2  24
ATOM     24  C   UNL     1      38.399  36.053  61.836  1.00  0.00     0.116 C 
ATOM     25  C   UNL     1      38.698  37.536  61.655  1.00  0.00     0.027 C 
ENDBRANCH   2  24
TORSDOF 3
ENDMDL
MODEL 3
REMARK VINA RESULT:    -8.434      2.684      7.379
REMARK INTER + INTRA:         -10.369
REMARK INTER:                  -9.896
REMARK INTRA:                  -0.473
REMARK UNBOUND:                -0.455
REMARK SMILES CCN(CC)C(=O)[C@@H]1C=C2c3cccc4[nH]cc(c34)C[C@H]2N(C)C1
REMARK SMILES IDX 7 1 3 2 6 3 8 4 24 5 9 6 22 7 10 8 21 9 11 10 20 11 19 12
REMARK SMILES IDX 12 13 18 14 15 15 13 16 17 17 16 18 14 19 23 20 2 22 1 23
REMARK SMILES IDX 4 24 5 25
REMARK H PARENT 16 21
ROOT
ATOM      1  O   UNL     1      40.284  28.594  56.572  1.00  0.00    -0.274 OA
ATOM      2  N   UNL     1      39.023  26.689  56.482  1.00  0.00    -0.343 N 
ATOM      3  C   UNL     1      39.299  27.963  56.981  1.00  0.00     0.230 C 
ENDROOT
BRANCH   3   4
ATOM      4  C   UNL     1      38.415  28.639  58.044  1.00  0.00     0.116 C 
ATOM      5  C   UNL     1      37.573  29.786  57.453  1.00  0.00     0.102 C 
ATOM      6  C   UNL     1      39.179  29.028  59.283  1.00  0.00    -0.007 C 
ATOM      7  N   UNL     1      36.837  30.588  58.452  1.00  0.00    -0.298 NA
ATOM      8  C   UNL     1      38.902  30.176  59.925  1.00  0.00    -0.026 C 
ATOM      9  C   UNL     1      37.742  31.122  59.503  1.00  0.00     0.091 C 
ATOM     10  C   UNL     1      39.781  30.697  60.992  1.00  0.00    -0.011 A 
ATOM     11  C   UNL     1      38.262  32.554  59.110  1.00  0.00     0.061 C 
ATOM     12  C   UNL     1      39.863  32.100  60.995  1.00  0.00     0.010 A 
ATOM     13  C   UNL     1      40.540  29.997  61.930  1.00  0.00     0.009 A 
ATOM     14  C   UNL     1      39.208  33.042  60.163  1.00  0.00    -0.020 A 
ATOM     15  C   UNL     1      40.666  32.779  61.895  1.00  0.00     0.046 A 
ATOM     16  C   UNL     1      41.347  30.693  62.843  1.00  0.00     0.003 A 
ATOM     17  C   UNL     1      39.627  34.291  60.562  1.00  0.00     0.087 A 
ATOM     18  N   UNL     1      40.507  34.119  61.611  1.00  0.00    -0.361 N 
ATOM     19  C   UNL     1      41.430  32.097  62.845  1.00  0.00     0.027 A 
ATOM     20  C   UNL     1      35.741  29.816  59.045  1.00  0.00     0.106 C 
ATOM     21  H   UNL     1      40.970  34.869  62.107  1.00  0.00     0.166 HD
ENDBRANCH   3   4
BRANCH   2  22
ATOM     22  C   UNL     1      39.906  26.196  55.418  1.00  0.00     0.116 C 
ATOM     23  C   UNL     1      39.368  26.512  54.030  1.00  0.00     0.027 C 
ENDBRANCH   2  22
BRANCH   2  24
ATOM     24  C   UNL     1      37.812  25.897  56.744  1.00  0.00     0.116 C 
ATOM     25  C   UNL     1      38.020  24.833  57.814  1.00  0.00     0.027 C 
ENDBRANCH   2  24
TORSDOF 3
ENDMDL
MODEL 4
REMARK VINA RESULT:    -8.217      2.280      6.938
REMARK INTER + INTRA:         -10.113
REMARK INTER:                  -9.716
REMARK INTRA:                  -0.397
REMARK UNBOUND:                -0.455
REMARK SMILES CCN(CC)C(=O)[C@@H]1C=C2c3cccc4[nH]cc(c34)C[C@H]2N(C)C1
REMARK SMILES IDX 7 1 3 2 6 3 8 4 24 5 9 6 22 7 10 8 21 9 11 10 20 11 19 12
REMARK SMILES IDX 12 13 18 14 15 15 13 16 17 17 16 18 14 19 23 20 2 22 1 23
REMARK SMILES IDX 4 24 5 25
REMARK H PARENT 16 21
ROOT
ATOM      1  O   UNL     1      37.925  31.361  55.202  1.00  0.00    -0.274 OA
ATOM      2  N   UNL     1      38.950  29.406  54.603  1.00  0.00    -0.343 N 
ATOM      3  C   UNL     1      38.494  30.318  55.556  1.00  0.00     0.230 C 
ENDROOT
BRANCH   3   4
ATOM      4  C   UNL     1      38.668  30.083  57.067  1.00  0.00     0.116 C 
ATOM      5  C   UNL     1      37.617  29.107  57.628  1.00  0.00     0.102 C 
ATOM      6  C   UNL     1      38.780  31.365  57.852  1.00  0.00    -0.007 C 
ATOM      7  N   UNL     1      37.620  28.975  59.099  1.00  0.00    -0.298 NA
ATOM      8  C   UNL     1      38.207  31.477  59.063  1.00  0.00    -0.026 C 
ATOM      9  C   UNL     1      37.483  30.296  59.768  1.00  0.00     0.091 C 
ATOM     10  C   UNL     1      38.095  32.781  59.748  1.00  0.00    -0.011 A 
ATOM     11  C   UNL     1      35.969  30.617  60.054  1.00  0.00     0.061 C 
ATOM     12  C   UNL     1      36.907  32.910  60.487  1.00  0.00     0.010 A 
ATOM     13  C   UNL     1      38.966  33.871  59.719  1.00  0.00     0.009 A 
ATOM     14  C   UNL     1      35.862  31.972  60.682  1.00  0.00    -0.020 A 
ATOM     15  C   UNL     1      36.598  34.073  61.171  1.00  0.00     0.046 A 
ATOM     16  C   UNL     1      38.649  35.045  60.419  1.00  0.00     0.003 A 
ATOM     17  C   UNL     1      34.920  32.580  61.479  1.00  0.00     0.087 A 
ATOM     18  N   UNL     1      35.377  33.849  61.770  1.00  0.00    -0.361 N 
ATOM     19  C   UNL     1      37.459  35.173  61.158  1.00  0.00     0.027 A 
ATOM     20  C   UNL     1      38.819  28.272  59.564  1.00  0.00     0.106 C 
ATOM     21  H   UNL     1      34.889  34.523  62.345  1.00  0.00     0.166 HD
ENDBRANCH   3   4
BRANCH   2  22
ATOM     22  C   UNL     1      38.650  29.720  53.200  1.00  0.00     0.116 C 
ATOM     23  C   UNL     1      39.836  30.353  52.485  1.00  0.00     0.027 C 
ENDBRANCH   2  22
BRANCH   2  24
ATOM     24  C   UNL     1      39.485  28.063  54.870  1.00  0.00     0.116 C 
ATOM     25  C   UNL     1      38.474  26.957  54.598  1.00  0.00     0.027 C 
ENDBRANCH   2  24
TORSDOF 3
ENDMDL
MODEL 5
REMARK VINA RESULT:    -8.038      1.897      6.935
REMARK INTER + INTRA:          -9.903
REMARK INTER:                  -9.506
REMARK INTRA:                  -0.397
REMARK UNBOUND:                -0.455
REMARK SMILES CCN(CC)C(=O)[C@@H]1C=C2c3cccc4[nH]cc(c34)C[C@H]2N(C)C1
REMARK SMILES IDX 7 1 3 2 6 3 8 4 24 5 9 6 22 7 10 8 21 9 11 10 20 11 19 12
REMARK SMILES IDX 12 13 18 14 15 15 13 16 17 17 16 18 14 19 23 20 2 22 1 23
REMARK SMILES IDX 4 24 5 25
REMARK H PARENT 16 21
ROOT
ATOM      1  O   UNL     1      38.743  30.815  57.222  1.00  0.00    -0.274 OA
ATOM      2  N   UNL     1      39.377  29.025  58.496  1.00  0.00    -0.343 N 
ATOM      3  C   UNL     1      38.709  30.237  58.318  1.00  0.00     0.230 C 
ENDROOT
BRANCH   3   4
ATOM      4  C   UNL     1      37.909  30.909  59.449  1.00  0.00     0.116 C 
ATOM      5  C   UNL     1      36.533  31.407  58.969  1.00  0.00     0.102 C 
ATOM      6  C   UNL     1      38.704  31.954  60.189  1.00  0.00    -0.007 C 
ATOM      7  N   UNL     1      35.790  32.214  59.959  1.00  0.00    -0.298 NA
ATOM      8  C   UNL     1      38.117  33.089  60.608  1.00  0.00    -0.026 C 
ATOM      9  C   UNL     1      36.596  33.365  60.444  1.00  0.00     0.091 C 
ATOM     10  C   UNL     1      38.910  34.226  61.120  1.00  0.00    -0.011 A 
ATOM     11  C   UNL     1      36.318  34.643  59.570  1.00  0.00     0.061 C 
ATOM     12  C   UNL     1      38.365  35.474  60.771  1.00  0.00     0.010 A 
ATOM     13  C   UNL     1      40.105  34.215  61.841  1.00  0.00     0.009 A 
ATOM     14  C   UNL     1      37.180  35.769  60.052  1.00  0.00    -0.020 A 
ATOM     15  C   UNL     1      38.981  36.661  61.127  1.00  0.00     0.046 A 
ATOM     16  C   UNL     1      40.721  35.423  62.202  1.00  0.00     0.003 A 
ATOM     17  C   UNL     1      37.091  37.139  59.969  1.00  0.00     0.087 A 
ATOM     18  N   UNL     1      38.185  37.668  60.624  1.00  0.00    -0.361 N 
ATOM     19  C   UNL     1      40.175  36.671  61.852  1.00  0.00     0.027 A 
ATOM     20  C   UNL     1      35.329  31.386  61.077  1.00  0.00     0.106 C 
ATOM     21  H   UNL     1      38.377  38.655  60.726  1.00  0.00     0.166 HD
ENDBRANCH   3   4
BRANCH   2  22
ATOM     22  C   UNL     1      40.038  28.461  57.312  1.00  0.00     0.116 C 
ATOM     23  C   UNL     1      41.407  27.881  57.638  1.00  0.00     0.027 C 
ENDBRANCH   2  22
BRANCH   2  24
ATOM     24  C   UNL     1      39.289  28.149  59.673  1.00  0.00     0.116 C 
ATOM     25  C   UNL     1      40.169  28.615  60.826  1.00  0.00     0.027 C 
ENDBRANCH   2  24
TORSDOF 3
ENDMDL
MODEL 6
REMARK VINA RESULT:    -8.005      1.456      2.139
REMARK INTER + INTRA:          -9.864
REMARK INTER:                  -9.918
REMARK INTRA:                   0.054
REMARK UNBOUND:                -0.455
REMARK SMILES CCN(CC)C(=O)[C@@H]1C=C2c3cccc4[nH]cc(c34)C[C@H]2N(C)C1
REMARK SMILES IDX 7 1 3 2 6 3 8 4 24 5 9 6 22 7 10 8 21 9 11 10 20 11 19 12
REMARK SMILES IDX 12 13 18 14 15 15 13 16 17 17 16 18 14 19 23 20 2 22 1 23
REMARK SMILES IDX 4 24 5 25
REMARK H PARENT 16 21
ROOT
ATOM      1  O   UNL     1      38.909  35.520  61.179  1.00  0.00    -0.274 OA
ATOM      2  N   UNL     1      40.332  33.798  61.670  1.00  0.00    -0.343 N 
ATOM      3  C   UNL     1      39.137  34.302  61.153  1.00  0.00     0.230 C 
ENDROOT
BRANCH   3   4
ATOM      4  C   UNL     1      38.059  33.392  60.537  1.00  0.00     0.116 C 
ATOM      5  C   UNL     1      37.708  32.206  61.455  1.00  0.00     0.102 C 
ATOM      6  C   UNL     1      38.373  32.986  59.120  1.00  0.00    -0.007 C 
ATOM      7  N   UNL     1      36.811  31.201  60.848  1.00  0.00    -0.298 NA
ATOM      8  C   UNL     1      38.088  31.746  58.685  1.00  0.00    -0.026 C 
ATOM      9  C   UNL     1      37.349  30.693  59.558  1.00  0.00     0.091 C 
ATOM     10  C   UNL     1      38.593  31.245  57.390  1.00  0.00    -0.011 A 
ATOM     11  C   UNL     1      38.220  29.404  59.791  1.00  0.00     0.061 C 
ATOM     12  C   UNL     1      38.914  29.878  57.421  1.00  0.00     0.010 A 
ATOM     13  C   UNL     1      38.820  31.942  56.203  1.00  0.00     0.009 A 
ATOM     14  C   UNL     1      38.786  28.947  58.482  1.00  0.00    -0.020 A 
ATOM     15  C   UNL     1      39.438  29.229  56.317  1.00  0.00     0.046 A 
ATOM     16  C   UNL     1      39.347  31.276  55.086  1.00  0.00     0.003 A 
ATOM     17  C   UNL     1      39.243  27.737  58.013  1.00  0.00     0.087 A 
ATOM     18  N   UNL     1      39.633  27.920  56.702  1.00  0.00    -0.361 N 
ATOM     19  C   UNL     1      39.669  29.908  55.118  1.00  0.00     0.027 A 
ATOM     20  C   UNL     1      35.457  31.735  60.679  1.00  0.00     0.106 C 
ATOM     21  H   UNL     1      40.007  27.196  56.102  1.00  0.00     0.166 HD
ENDBRANCH   3   4
BRANCH   2  22
ATOM     22  C   UNL     1      41.302  34.786  62.159  1.00  0.00     0.116 C 
ATOM     23  C   UNL     1      41.149  35.054  63.650  1.00  0.00     0.027 C 
ENDBRANCH   2  22
BRANCH   2  24
ATOM     24  C   UNL     1      40.811  32.413  61.558  1.00  0.00     0.116 C 
ATOM     25  C   UNL     1      40.943  31.721  62.909  1.00  0.00     0.027 C 
ENDBRANCH   2  24
TORSDOF 3
ENDMDL
MODEL 7
REMARK VINA RESULT:    -7.955      2.398      7.241
REMARK INTER + INTRA:          -9.805
REMARK INTER:                  -9.709
REMARK INTRA:                  -0.096
REMARK UNBOUND:                -0.455
REMARK SMILES CCN(CC)C(=O)[C@@H]1C=C2c3cccc4[nH]cc(c34)C[C@H]2N(C)C1
REMARK SMILES IDX 7 1 3 2 6 3 8 4 24 5 9 6 22 7 10 8 21 9 11 10 20 11 19 12
REMARK SMILES IDX 12 13 18 14 15 15 13 16 17 17 16 18 14 19 23 20 2 22 1 23
REMARK SMILES IDX 4 24 5 25
REMARK H PARENT 16 21
ROOT
ATOM      1  O   UNL     1      40.733  28.697  59.659  1.00  0.00    -0.274 OA
ATOM      2  N   UNL     1      39.026  27.991  58.311  1.00  0.00    -0.343 N 
ATOM      3  C   UNL     1      39.550  28.812  59.311  1.00  0.00     0.230 C 
ENDROOT
BRANCH   3   4
ATOM      4  C   UNL     1      38.703  29.885  60.020  1.00  0.00     0.116 C 
ATOM      5  C   UNL     1      38.146  30.930  59.035  1.00  0.00     0.102 C 
ATOM      6  C   UNL     1      39.400  30.490  61.211  1.00  0.00    -0.007 C 
ATOM      7  N   UNL     1      37.473  32.080  59.671  1.00  0.00    -0.298 NA
ATOM      8  C   UNL     1      39.275  31.801  61.483  1.00  0.00    -0.026 C 
ATOM      9  C   UNL     1      38.354  32.749  60.665  1.00  0.00     0.091 C 
ATOM     10  C   UNL     1      40.125  32.467  62.492  1.00  0.00    -0.011 A 
ATOM     11  C   UNL     1      39.161  33.919  59.990  1.00  0.00     0.061 C 
ATOM     12  C   UNL     1      40.460  33.785  62.139  1.00  0.00     0.010 A 
ATOM     13  C   UNL     1      40.648  31.956  63.680  1.00  0.00     0.009 A 
ATOM     14  C   UNL     1      40.073  34.539  61.003  1.00  0.00    -0.020 A 
ATOM     15  C   UNL     1      41.281  34.564  62.936  1.00  0.00     0.046 A 
ATOM     16  C   UNL     1      41.475  32.754  64.485  1.00  0.00     0.003 A 
ATOM     17  C   UNL     1      40.670  35.773  61.117  1.00  0.00     0.087 A 
ATOM     18  N   UNL     1      41.397  35.777  62.291  1.00  0.00    -0.361 N 
ATOM     19  C   UNL     1      41.811  34.073  64.131  1.00  0.00     0.027 A 
ATOM     20  C   UNL     1      36.203  31.678  60.282  1.00  0.00     0.106 C 
ATOM     21  H   UNL     1      41.937  36.560  62.634  1.00  0.00     0.166 HD
ENDBRANCH   3   4
BRANCH   2  22
ATOM     22  C   UNL     1      39.965  27.063  57.668  1.00  0.00     0.116 C 
ATOM     23  C   UNL     1      39.476  25.622  57.717  1.00  0.00     0.027 C 
ENDBRANCH   2  22
BRANCH   2  24
ATOM     24  C   UNL     1      37.705  28.123  57.681  1.00  0.00     0.116 C 
ATOM     25  C   UNL     1      37.783  28.575  56.229  1.00  0.00     0.027 C 
ENDBRANCH   2  24
TORSDOF 3
ENDMDL
MODEL 8
REMARK VINA RESULT:    -7.941      2.763      4.419
REMARK INTER + INTRA:          -9.789
REMARK INTER:                  -9.224
REMARK INTRA:                  -0.566
REMARK UNBOUND:                -0.455
REMARK SMILES CCN(CC)C(=O)[C@@H]1C=C2c3cccc4[nH]cc(c34)C[C@H]2N(C)C1
REMARK SMILES IDX 7 1 3 2 6 3 8 4 24 5 9 6 22 7 10 8 21 9 11 10 20 11 19 12
REMARK SMILES IDX 12 13 18 14 15 15 13 16 17 17 16 18 14 19 23 20 2 22 1 23
REMARK SMILES IDX 4 24 5 25
REMARK H PARENT 16 21
ROOT
ATOM      1  O   UNL     1      35.939  34.947  61.844  1.00  0.00    -0.274 OA
ATOM      2  N   UNL     1      37.277  36.802  61.802  1.00  0.00    -0.343 N 
ATOM      3  C   UNL     1      36.976  35.489  61.434  1.00  0.00     0.230 C 
ENDROOT
BRANCH   3   4
ATOM      4  C   UNL     1      37.896  34.660  60.520  1.00  0.00     0.116 C 
ATOM      5  C   UNL     1      37.103  33.678  59.637  1.00  0.00     0.102 C 
ATOM      6  C   UNL     1      39.037  34.016  61.264  1.00  0.00    -0.007 C 
ATOM      7  N   UNL     1      37.936  32.732  58.866  1.00  0.00    -0.298 NA
ATOM      8  C   UNL     1      39.453  32.778  60.940  1.00  0.00    -0.026 C 
ATOM      9  C   UNL     1      38.864  31.975  59.746  1.00  0.00     0.091 C 
ATOM     10  C   UNL     1      40.400  32.032  61.794  1.00  0.00    -0.011 A 
ATOM     11  C   UNL     1      38.208  30.623  60.210  1.00  0.00     0.061 C 
ATOM     12  C   UNL     1      40.138  30.651  61.821  1.00  0.00     0.010 A 
ATOM     13  C   UNL     1      41.450  32.513  62.576  1.00  0.00     0.009 A 
ATOM     14  C   UNL     1      39.146  29.909  61.133  1.00  0.00    -0.020 A 
ATOM     15  C   UNL     1      40.892  29.784  62.593  1.00  0.00     0.046 A 
ATOM     16  C   UNL     1      42.213  31.626  63.352  1.00  0.00     0.003 A 
ATOM     17  C   UNL     1      39.302  28.593  61.501  1.00  0.00     0.087 A 
ATOM     18  N   UNL     1      40.361  28.529  62.383  1.00  0.00    -0.361 N 
ATOM     19  C   UNL     1      41.950  30.245  63.380  1.00  0.00     0.027 A 
ATOM     20  C   UNL     1      38.668  33.421  57.799  1.00  0.00     0.106 C 
ATOM     21  H   UNL     1      40.706  27.682  62.814  1.00  0.00     0.166 HD
ENDBRANCH   3   4
BRANCH   2  22
ATOM     22  C   UNL     1      36.275  37.500  62.617  1.00  0.00     0.116 C 
ATOM     23  C   UNL     1      35.764  38.766  61.943  1.00  0.00     0.027 C 
ENDBRANCH   2  22
BRANCH   2  24
ATOM     24  C   UNL     1      38.370  37.625  61.267  1.00  0.00     0.116 C 
ATOM     25  C   UNL     1      39.610  37.611  62.151  1.00  0.00     0.027 C 
ENDBRANCH   2  24
TORSDOF 3
ENDMDL
MODEL 9
REMARK VINA RESULT:    -7.814      2.746      5.562
REMARK INTER + INTRA:          -9.640
REMARK INTER:                 -10.084
REMARK INTRA:                   0.445
REMARK UNBOUND:                -0.455
REMARK SMILES CCN(CC)C(=O)[C@@H]1C=C2c3cccc4[nH]cc(c34)C[C@H]2N(C)C1
REMARK SMILES IDX 7 1 3 2 6 3 8 4 24 5 9 6 22 7 10 8 21 9 11 10 20 11 19 12
REMARK SMILES IDX 12 13 18 14 15 15 13 16 17 17 16 18 14 19 23 20 2 22 1 23
REMARK SMILES IDX 4 24 5 25
REMARK H PARENT 16 21
ROOT
ATOM      1  O   UNL     1      38.332  33.489  56.226  1.00  0.00    -0.274 OA
ATOM      2  N   UNL     1      38.371  31.996  57.958  1.00  0.00    -0.343 N 
ATOM      3  C   UNL     1      38.590  32.345  56.624  1.00  0.00     0.230 C 
ENDROOT
BRANCH   3   4
ATOM      4  C   UNL     1      39.153  31.347  55.595  1.00  0.00     0.116 C 
ATOM      5  C   UNL     1      38.266  31.247  54.340  1.00  0.00     0.102 C 
ATOM      6  C   UNL     1      39.494  30.010  56.200  1.00  0.00    -0.007 C 
ATOM      7  N   UNL     1      38.654  30.181  53.394  1.00  0.00    -0.298 NA
ATOM      8  C   UNL     1      39.264  28.873  55.520  1.00  0.00    -0.026 C 
ATOM      9  C   UNL     1      38.727  28.855  54.061  1.00  0.00     0.091 C 
ATOM     10  C   UNL     1      39.365  27.549  56.169  1.00  0.00    -0.011 A 
ATOM     11  C   UNL     1      37.349  28.102  53.949  1.00  0.00     0.061 C 
ATOM     12  C   UNL     1      38.417  26.631  55.686  1.00  0.00     0.010 A 
ATOM     13  C   UNL     1      40.220  27.129  57.188  1.00  0.00     0.009 A 
ATOM     14  C   UNL     1      37.440  26.794  54.672  1.00  0.00    -0.020 A 
ATOM     15  C   UNL     1      38.324  25.347  56.195  1.00  0.00     0.046 A 
ATOM     16  C   UNL     1      40.124  25.824  57.694  1.00  0.00     0.003 A 
ATOM     17  C   UNL     1      36.755  25.605  54.578  1.00  0.00     0.087 A 
ATOM     18  N   UNL     1      37.300  24.737  55.503  1.00  0.00    -0.361 N 
ATOM     19  C   UNL     1      39.174  24.905  57.211  1.00  0.00     0.027 A 
ATOM     20  C   UNL     1      39.918  30.503  52.725  1.00  0.00     0.106 C 
ATOM     21  H   UNL     1      36.995  23.784  55.652  1.00  0.00     0.166 HD
ENDBRANCH   3   4
BRANCH   2  22
ATOM     22  C   UNL     1      37.902  33.067  58.846  1.00  0.00     0.116 C 
ATOM     23  C   UNL     1      38.918  33.406  59.927  1.00  0.00     0.027 C 
ENDBRANCH   2  22
BRANCH   2  24
ATOM     24  C   UNL     1      38.782  30.743  58.607  1.00  0.00     0.116 C 
ATOM     25  C   UNL     1      37.606  29.948  59.159  1.00  0.00     0.027 C 
ENDBRANCH   2  24
TORSDOF 3
ENDMDL
MODEL 10
REMARK VINA RESULT:    -7.725      2.203      2.962
REMARK INTER + INTRA:          -9.535
REMARK INTER:                  -8.994
REMARK INTRA:                  -0.541
REMARK UNBOUND:                -0.455
REMARK SMILES CCN(CC)C(=O)[C@@H]1C=C2c3cccc4[nH]cc(c34)C[C@H]2N(C)C1
REMARK SMILES IDX 7 1 3 2 6 3 8 4 24 5 9 6 22 7 10 8 21 9 11 10 20 11 19 12
REMARK SMILES IDX 12 13 18 14 15 15 13 16 17 17 16 18 14 19 23 20 2 22 1 23
REMARK SMILES IDX 4 24 5 25
REMARK H PARENT 16 21
ROOT
ATOM      1  O   UNL     1      40.699  30.214  60.698  1.00  0.00    -0.274 OA
ATOM      2  N   UNL     1      40.229  32.362  61.324  1.00  0.00    -0.343 N 
ATOM      3  C   UNL     1      39.936  31.188  60.630  1.00  0.00     0.230 C 
ENDROOT
BRANCH   3   4
ATOM      4  C   UNL     1      38.673  31.040  59.761  1.00  0.00     0.116 C 
ATOM      5  C   UNL     1      37.830  29.816  60.168  1.00  0.00     0.102 C 
ATOM      6  C   UNL     1      38.966  31.108  58.285  1.00  0.00    -0.007 C 
ATOM      7  N   UNL     1      36.701  29.518  59.263  1.00  0.00    -0.298 NA
ATOM      8  C   UNL     1      38.303  30.320  57.420  1.00  0.00    -0.026 C 
ATOM      9  C   UNL     1      37.152  29.370  57.854  1.00  0.00     0.091 C 
ATOM     10  C   UNL     1      38.726  30.191  56.010  1.00  0.00    -0.011 A 
ATOM     11  C   UNL     1      37.476  27.864  57.532  1.00  0.00     0.061 C 
ATOM     12  C   UNL     1      38.533  28.897  55.498  1.00  0.00     0.010 A 
ATOM     13  C   UNL     1      39.308  31.144  55.173  1.00  0.00     0.009 A 
ATOM     14  C   UNL     1      37.974  27.755  56.124  1.00  0.00    -0.020 A 
ATOM     15  C   UNL     1      38.902  28.564  54.206  1.00  0.00     0.046 A 
ATOM     16  C   UNL     1      39.674  30.800  53.863  1.00  0.00     0.003 A 
ATOM     17  C   UNL     1      38.014  26.732  55.205  1.00  0.00     0.087 A 
ATOM     18  N   UNL     1      38.576  27.233  54.049  1.00  0.00    -0.361 N 
ATOM     19  C   UNL     1      39.482  29.504  53.351  1.00  0.00     0.027 A 
ATOM     20  C   UNL     1      35.651  30.535  59.374  1.00  0.00     0.106 C 
ATOM     21  H   UNL     1      38.727  26.703  53.201  1.00  0.00     0.166 HD
ENDBRANCH   3   4
BRANCH   2  22
ATOM     22  C   UNL     1      41.427  32.339  62.174  1.00  0.00     0.116 C 
ATOM     23  C   UNL     1      41.102  32.618  63.635  1.00  0.00     0.027 C 
ENDBRANCH   2  22
BRANCH   2  24
ATOM     24  C   UNL     1      39.345  33.527  61.475  1.00  0.00     0.116 C 
ATOM     25  C   UNL     1      39.731  34.685  60.564  1.00  0.00     0.027 C 
ENDBRANCH   2  24
TORSDOF 3
ENDMDL
MODEL 11
REMARK VINA RESULT:    -7.691      2.737      7.209
REMARK INTER + INTRA:          -9.495
REMARK INTER:                  -9.269
REMARK INTRA:                  -0.226
REMARK UNBOUND:                -0.455
REMARK SMILES CCN(CC)C(=O)[C@@H]1C=C2c3cccc4[nH]cc(c34)C[C@H]2N(C)C1
REMARK SMILES IDX 7 1 3 2 6 3 8 4 24 5 9 6 22 7 10 8 21 9 11 10 20 11 19 12
REMARK SMILES IDX 12 13 18 14 15 15 13 16 17 17 16 18 14 19 23 20 2 22 1 23
REMARK SMILES IDX 4 24 5 25
REMARK H PARENT 16 21
ROOT
ATOM      1  O   UNL     1      40.689  28.315  57.190  1.00  0.00    -0.274 OA
ATOM      2  N   UNL     1      38.907  27.593  55.951  1.00  0.00    -0.343 N 
ATOM      3  C   UNL     1      39.459  28.247  57.054  1.00  0.00     0.230 C 
ENDROOT
BRANCH   3   4
ATOM      4  C   UNL     1      38.588  28.905  58.139  1.00  0.00     0.116 C 
ATOM      5  C   UNL     1      37.802  30.115  57.597  1.00  0.00     0.102 C 
ATOM      6  C   UNL     1      39.350  29.200  59.405  1.00  0.00    -0.007 C 
ATOM      7  N   UNL     1      37.086  30.896  58.626  1.00  0.00    -0.298 NA
ATOM      8  C   UNL     1      39.111  30.326  60.101  1.00  0.00    -0.026 C 
ATOM      9  C   UNL     1      37.998  31.338  59.713  1.00  0.00     0.091 C 
ATOM     10  C   UNL     1      39.996  30.756  61.204  1.00  0.00    -0.011 A 
ATOM     11  C   UNL     1      38.581  32.766  59.400  1.00  0.00     0.061 C 
ATOM     12  C   UNL     1      40.136  32.152  61.278  1.00  0.00     0.010 A 
ATOM     13  C   UNL     1      40.713  29.979  62.114  1.00  0.00     0.009 A 
ATOM     14  C   UNL     1      39.532  33.161  60.487  1.00  0.00    -0.020 A 
ATOM     15  C   UNL     1      40.953  32.751  62.221  1.00  0.00     0.046 A 
ATOM     16  C   UNL     1      41.535  30.594  63.070  1.00  0.00     0.003 A 
ATOM     17  C   UNL     1      39.996  34.369  60.953  1.00  0.00     0.087 A 
ATOM     18  N   UNL     1      40.853  34.109  62.003  1.00  0.00    -0.361 N 
ATOM     19  C   UNL     1      41.675  31.992  63.144  1.00  0.00     0.027 A 
ATOM     20  C   UNL     1      35.951  30.141  59.167  1.00  0.00     0.106 C 
ATOM     21  H   UNL     1      41.339  34.813  62.542  1.00  0.00     0.166 HD
ENDBRANCH   3   4
BRANCH   2  22
ATOM     22  C   UNL     1      39.854  27.075  54.955  1.00  0.00     0.116 C 
ATOM     23  C   UNL     1      39.703  25.576  54.742  1.00  0.00     0.027 C 
ENDBRANCH   2  22
BRANCH   2  24
ATOM     24  C   UNL     1      37.487  27.577  55.571  1.00  0.00     0.116 C 
ATOM     25  C   UNL     1      37.219  28.289  54.252  1.00  0.00     0.027 C 
ENDBRANCH   2  24
TORSDOF 3
ENDMDL
MODEL 12
REMARK VINA RESULT:    -7.639      3.081      7.797
REMARK INTER + INTRA:          -9.434
REMARK INTER:                  -8.960
REMARK INTRA:                  -0.474
REMARK UNBOUND:                -0.455
REMARK SMILES CCN(CC)C(=O)[C@@H]1C=C2c3cccc4[nH]cc(c34)C[C@H]2N(C)C1
REMARK SMILES IDX 7 1 3 2 6 3 8 4 24 5 9 6 22 7 10 8 21 9 11 10 20 11 19 12
REMARK SMILES IDX 12 13 18 14 15 15 13 16 17 17 16 18 14 19 23 20 2 22 1 23
REMARK SMILES IDX 4 24 5 25
REMARK H PARENT 16 21
ROOT
ATOM      1  O   UNL     1      37.157  26.712  57.309  1.00  0.00    -0.274 OA
ATOM      2  N   UNL     1      38.230  25.986  55.424  1.00  0.00    -0.343 N 
ATOM      3  C   UNL     1      38.187  26.706  56.619  1.00  0.00     0.230 C 
ENDROOT
BRANCH   3   4
ATOM      4  C   UNL     1      39.391  27.514  57.136  1.00  0.00     0.116 C 
ATOM      5  C   UNL     1      40.165  26.762  58.236  1.00  0.00     0.102 C 
ATOM      6  C   UNL     1      39.031  28.928  57.511  1.00  0.00    -0.007 C 
ATOM      7  N   UNL     1      41.223  27.554  58.896  1.00  0.00    -0.298 NA
ATOM      8  C   UNL     1      39.593  29.515  58.583  1.00  0.00    -0.026 C 
ATOM      9  C   UNL     1      40.694  28.832  59.441  1.00  0.00     0.091 C 
ATOM     10  C   UNL     1      39.092  30.801  59.112  1.00  0.00    -0.011 A 
ATOM     11  C   UNL     1      40.248  28.652  60.939  1.00  0.00     0.061 C 
ATOM     12  C   UNL     1      39.167  30.881  60.513  1.00  0.00     0.010 A 
ATOM     13  C   UNL     1      38.539  31.882  58.425  1.00  0.00     0.009 A 
ATOM     14  C   UNL     1      39.675  29.940  61.443  1.00  0.00    -0.020 A 
ATOM     15  C   UNL     1      38.712  31.992  61.203  1.00  0.00     0.046 A 
ATOM     16  C   UNL     1      38.084  33.007  59.131  1.00  0.00     0.003 A 
ATOM     17  C   UNL     1      39.516  30.487  62.695  1.00  0.00     0.087 A 
ATOM     18  N   UNL     1      38.935  31.728  62.537  1.00  0.00    -0.361 N 
ATOM     19  C   UNL     1      38.159  33.086  60.533  1.00  0.00     0.027 A 
ATOM     20  C   UNL     1      42.347  27.796  57.986  1.00  0.00     0.106 C 
ATOM     21  H   UNL     1      38.705  32.360  63.292  1.00  0.00     0.166 HD
ENDBRANCH   3   4
BRANCH   2  22
ATOM     22  C   UNL     1      37.037  25.200  55.089  1.00  0.00     0.116 C 
ATOM     23  C   UNL     1      37.144  23.758  55.564  1.00  0.00     0.027 C 
ENDBRANCH   2  22
BRANCH   2  24
ATOM     24  C   UNL     1      39.421  25.750  54.595  1.00  0.00     0.116 C 
ATOM     25  C   UNL     1      39.520  26.706  53.414  1.00  0.00     0.027 C 
ENDBRANCH   2  24
TORSDOF 3
ENDMDL
MODEL 13
REMARK VINA RESULT:    -7.638      2.877      4.929
REMARK INTER + INTRA:          -9.432
REMARK INTER:                  -9.012
REMARK INTRA:                  -0.421
REMARK UNBOUND:                -0.455
REMARK SMILES CCN(CC)C(=O)[C@@H]1C=C2c3cccc4[nH]cc(c34)C[C@H]2N(C)C1
REMARK SMILES IDX 7 1 3 2 6 3 8 4 24 5 9 6 22 7 10 8 21 9 11 10 20 11 19 12
REMARK SMILES IDX 12 13 18 14 15 15 13 16 17 17 16 18 14 19 23 20 2 22 1 23
REMARK SMILES IDX 4 24 5 25
REMARK H PARENT 16 21
ROOT
ATOM      1  O   UNL     1      36.427  30.691  58.551  1.00  0.00    -0.274 OA
ATOM      2  N   UNL     1      37.058  31.627  60.540  1.00  0.00    -0.343 N 
ATOM      3  C   UNL     1      37.159  30.647  59.551  1.00  0.00     0.230 C 
ENDROOT
BRANCH   3   4
ATOM      4  C   UNL     1      38.163  29.484  59.645  1.00  0.00     0.116 C 
ATOM      5  C   UNL     1      39.582  29.908  59.221  1.00  0.00     0.102 C 
ATOM      6  C   UNL     1      37.678  28.233  58.959  1.00  0.00    -0.007 C 
ATOM      7  N   UNL     1      40.553  28.799  59.121  1.00  0.00    -0.298 NA
ATOM      8  C   UNL     1      38.534  27.451  58.278  1.00  0.00    -0.026 C 
ATOM      9  C   UNL     1      40.064  27.722  58.221  1.00  0.00     0.091 C 
ATOM     10  C   UNL     1      38.056  26.358  57.405  1.00  0.00    -0.011 A 
ATOM     11  C   UNL     1      40.567  27.959  56.749  1.00  0.00     0.061 C 
ATOM     12  C   UNL     1      38.847  26.193  56.255  1.00  0.00     0.010 A 
ATOM     13  C   UNL     1      36.941  25.534  57.554  1.00  0.00     0.009 A 
ATOM     14  C   UNL     1      40.018  26.887  55.860  1.00  0.00    -0.020 A 
ATOM     15  C   UNL     1      38.542  25.244  55.294  1.00  0.00     0.046 A 
ATOM     16  C   UNL     1      36.641  24.572  56.578  1.00  0.00     0.003 A 
ATOM     17  C   UNL     1      40.411  26.357  54.653  1.00  0.00     0.087 A 
ATOM     18  N   UNL     1      39.512  25.363  54.322  1.00  0.00    -0.361 N 
ATOM     19  C   UNL     1      37.433  24.407  55.427  1.00  0.00     0.027 A 
ATOM     20  C   UNL     1      40.886  28.267  60.446  1.00  0.00     0.106 C 
ATOM     21  H   UNL     1      39.557  24.797  53.485  1.00  0.00     0.166 HD
ENDBRANCH   3   4
BRANCH   2  22
ATOM     22  C   UNL     1      36.110  32.719  60.287  1.00  0.00     0.116 C 
ATOM     23  C   UNL     1      34.919  32.679  61.233  1.00  0.00     0.027 C 
ENDBRANCH   2  22
BRANCH   2  24
ATOM     24  C   UNL     1      37.962  31.801  61.686  1.00  0.00     0.116 C 
ATOM     25  C   UNL     1      39.010  32.881  61.455  1.00  0.00     0.027 C 
ENDBRANCH   2  24
TORSDOF 3
ENDMDL
MODEL 14
REMARK VINA RESULT:    -7.578      3.067      7.287
REMARK INTER + INTRA:          -9.363
REMARK INTER:                  -9.039
REMARK INTRA:                  -0.323
REMARK UNBOUND:                -0.455
REMARK SMILES CCN(CC)C(=O)[C@@H]1C=C2c3cccc4[nH]cc(c34)C[C@H]2N(C)C1
REMARK SMILES IDX 7 1 3 2 6 3 8 4 24 5 9 6 22 7 10 8 21 9 11 10 20 11 19 12
REMARK SMILES IDX 12 13 18 14 15 15 13 16 17 17 16 18 14 19 23 20 2 22 1 23
REMARK SMILES IDX 4 24 5 25
REMARK H PARENT 16 21
ROOT
ATOM      1  O   UNL     1      39.075  29.353  56.158  1.00  0.00    -0.274 OA
ATOM      2  N   UNL     1      38.318  27.227  56.521  1.00  0.00    -0.343 N 
ATOM      3  C   UNL     1      38.451  28.567  56.885  1.00  0.00     0.230 C 
ENDROOT
BRANCH   3   4
ATOM      4  C   UNL     1      37.844  29.132  58.182  1.00  0.00     0.116 C 
ATOM      5  C   UNL     1      37.465  30.619  58.046  1.00  0.00     0.102 C 
ATOM      6  C   UNL     1      38.679  28.832  59.400  1.00  0.00    -0.007 C 
ATOM      7  N   UNL     1      37.042  31.265  59.304  1.00  0.00    -0.298 NA
ATOM      8  C   UNL     1      38.811  29.744  60.380  1.00  0.00    -0.026 C 
ATOM      9  C   UNL     1      38.062  31.105  60.374  1.00  0.00     0.091 C 
ATOM     10  C   UNL     1      39.802  29.576  61.463  1.00  0.00    -0.011 A 
ATOM     11  C   UNL     1      39.055  32.326  60.378  1.00  0.00     0.061 C 
ATOM     12  C   UNL     1      40.370  30.793  61.877  1.00  0.00     0.010 A 
ATOM     13  C   UNL     1      40.255  28.405  62.071  1.00  0.00     0.009 A 
ATOM     14  C   UNL     1      40.098  32.111  61.431  1.00  0.00    -0.020 A 
ATOM     15  C   UNL     1      41.346  30.844  62.856  1.00  0.00     0.046 A 
ATOM     16  C   UNL     1      41.242  28.465  63.067  1.00  0.00     0.003 A 
ATOM     17  C   UNL     1      40.921  32.954  62.142  1.00  0.00     0.087 A 
ATOM     18  N   UNL     1      41.670  32.176  63.002  1.00  0.00    -0.361 N 
ATOM     19  C   UNL     1      41.810  29.684  63.480  1.00  0.00     0.027 A 
ATOM     20  C   UNL     1      35.737  30.762  59.744  1.00  0.00     0.106 C 
ATOM     21  H   UNL     1      42.359  32.531  63.652  1.00  0.00     0.166 HD
ENDBRANCH   3   4
BRANCH   2  22
ATOM     22  C   UNL     1      38.882  26.841  55.222  1.00  0.00     0.116 C 
ATOM     23  C   UNL     1      40.169  26.040  55.368  1.00  0.00     0.027 C 
ENDBRANCH   2  22
BRANCH   2  24
ATOM     24  C   UNL     1      37.474  26.225  57.189  1.00  0.00     0.116 C 
ATOM     25  C   UNL     1      36.969  25.147  56.239  1.00  0.00     0.027 C 
ENDBRANCH   2  24
TORSDOF 3
ENDMDL
MODEL 15
REMARK VINA RESULT:    -7.529      5.319      8.087
REMARK INTER + INTRA:          -9.305
REMARK INTER:                  -8.798
REMARK INTRA:                  -0.507
REMARK UNBOUND:                -0.455
REMARK SMILES CCN(CC)C(=O)[C@@H]1C=C2c3cccc4[nH]cc(c34)C[C@H]2N(C)C1
REMARK SMILES IDX 7 1 3 2 6 3 8 4 24 5 9 6 22 7 10 8 21 9 11 10 20 11 19 12
REMARK SMILES IDX 12 13 18 14 15 15 13 16 17 17 16 18 14 19 23 20 2 22 1 23
REMARK SMILES IDX 4 24 5 25
REMARK H PARENT 16 21
ROOT
ATOM      1  O   UNL     1      41.830  28.261  59.259  1.00  0.00    -0.274 OA
ATOM      2  N   UNL     1      39.765  28.678  58.369  1.00  0.00    -0.343 N 
ATOM      3  C   UNL     1      40.670  28.661  59.432  1.00  0.00     0.230 C 
ENDROOT
BRANCH   3   4
ATOM      4  C   UNL     1      40.286  29.129  60.847  1.00  0.00     0.116 C 
ATOM      5  C   UNL     1      40.687  30.594  61.102  1.00  0.00     0.102 C 
ATOM      6  C   UNL     1      40.746  28.181  61.924  1.00  0.00    -0.007 C 
ATOM      7  N   UNL     1      40.505  31.050  62.496  1.00  0.00    -0.298 NA
ATOM      8  C   UNL     1      41.204  28.651  63.098  1.00  0.00    -0.026 C 
ATOM      9  C   UNL     1      41.209  30.163  63.459  1.00  0.00     0.091 C 
ATOM     10  C   UNL     1      41.877  27.770  64.074  1.00  0.00    -0.011 A 
ATOM     11  C   UNL     1      42.662  30.697  63.742  1.00  0.00     0.061 C 
ATOM     12  C   UNL     1      42.918  28.414  64.765  1.00  0.00     0.010 A 
ATOM     13  C   UNL     1      41.646  26.422  64.353  1.00  0.00     0.009 A 
ATOM     14  C   UNL     1      43.361  29.757  64.675  1.00  0.00    -0.020 A 
ATOM     15  C   UNL     1      43.694  27.747  65.696  1.00  0.00     0.046 A 
ATOM     16  C   UNL     1      42.435  25.754  65.302  1.00  0.00     0.003 A 
ATOM     17  C   UNL     1      44.413  29.892  65.552  1.00  0.00     0.087 A 
ATOM     18  N   UNL     1      44.604  28.671  66.164  1.00  0.00    -0.361 N 
ATOM     19  C   UNL     1      43.476  26.399  65.992  1.00  0.00     0.027 A 
ATOM     20  C   UNL     1      39.083  31.167  62.832  1.00  0.00     0.106 C 
ATOM     21  H   UNL     1      45.310  28.477  66.862  1.00  0.00     0.166 HD
ENDBRANCH   3   4
BRANCH   2  22
ATOM     22  C   UNL     1      40.287  28.275  57.058  1.00  0.00     0.116 C 
ATOM     23  C   UNL     1      39.799  26.894  56.643  1.00  0.00     0.027 C 
ENDBRANCH   2  22
BRANCH   2  24
ATOM     24  C   UNL     1      38.423  29.276  58.381  1.00  0.00     0.116 C 
ATOM     25  C   UNL     1      38.396  30.686  57.806  1.00  0.00     0.027 C 
ENDBRANCH   2  24
TORSDOF 3
ENDMDL
MODEL 16
REMARK VINA RESULT:    -7.519      2.554      6.982
REMARK INTER + INTRA:          -9.293
REMARK INTER:                  -9.061
REMARK INTRA:                  -0.232
REMARK UNBOUND:                -0.455
REMARK SMILES CCN(CC)C(=O)[C@@H]1C=C2c3cccc4[nH]cc(c34)C[C@H]2N(C)C1
REMARK SMILES IDX 7 1 3 2 6 3 8 4 24 5 9 6 22 7 10 8 21 9 11 10 20 11 19 12
REMARK SMILES IDX 12 13 18 14 15 15 13 16 17 17 16 18 14 19 23 20 2 22 1 23
REMARK SMILES IDX 4 24 5 25
REMARK H PARENT 16 21
ROOT
ATOM      1  O   UNL     1      39.004  31.740  56.812  1.00  0.00    -0.274 OA
ATOM      2  N   UNL     1      38.715  29.739  57.880  1.00  0.00    -0.343 N 
ATOM      3  C   UNL     1      38.618  31.130  57.819  1.00  0.00     0.230 C 
ENDROOT
BRANCH   3   4
ATOM      4  C   UNL     1      38.038  31.965  58.975  1.00  0.00     0.116 C 
ATOM      5  C   UNL     1      38.005  33.469  58.644  1.00  0.00     0.102 C 
ATOM      6  C   UNL     1      38.678  31.654  60.303  1.00  0.00    -0.007 C 
ATOM      7  N   UNL     1      37.625  34.342  59.774  1.00  0.00    -0.298 NA
ATOM      8  C   UNL     1      38.921  32.635  61.192  1.00  0.00    -0.026 C 
ATOM      9  C   UNL     1      38.489  34.110  60.961  1.00  0.00     0.091 C 
ATOM     10  C   UNL     1      39.754  32.403  62.390  1.00  0.00    -0.011 A 
ATOM     11  C   UNL     1      39.720  35.090  60.949  1.00  0.00     0.061 C 
ATOM     12  C   UNL     1      40.535  33.520  62.736  1.00  0.00     0.010 A 
ATOM     13  C   UNL     1      39.887  31.250  63.163  1.00  0.00     0.009 A 
ATOM     14  C   UNL     1      40.595  34.799  62.129  1.00  0.00    -0.020 A 
ATOM     15  C   UNL     1      41.410  33.490  63.807  1.00  0.00     0.046 A 
ATOM     16  C   UNL     1      40.773  31.229  64.251  1.00  0.00     0.003 A 
ATOM     17  C   UNL     1      41.517  35.536  62.835  1.00  0.00     0.087 A 
ATOM     18  N   UNL     1      42.002  34.735  63.849  1.00  0.00    -0.361 N 
ATOM     19  C   UNL     1      41.554  32.346  64.596  1.00  0.00     0.027 A 
ATOM     20  C   UNL     1      36.208  34.177  60.115  1.00  0.00     0.106 C 
ATOM     21  H   UNL     1      42.692  35.018  64.531  1.00  0.00     0.166 HD
ENDBRANCH   3   4
BRANCH   2  22
ATOM     22  C   UNL     1      39.218  29.064  56.678  1.00  0.00     0.116 C 
ATOM     23  C   UNL     1      38.104  28.405  55.878  1.00  0.00     0.027 C 
ENDBRANCH   2  22
BRANCH   2  24
ATOM     24  C   UNL     1      38.150  28.874  58.926  1.00  0.00     0.116 C 
ATOM     25  C   UNL     1      39.210  28.062  59.659  1.00  0.00     0.027 C 
ENDBRANCH   2  24
TORSDOF 3
ENDMDL
MODEL 17
REMARK VINA RESULT:    -7.411      2.976      5.576
REMARK INTER + INTRA:          -9.166
REMARK INTER:                  -8.809
REMARK INTRA:                  -0.357
REMARK UNBOUND:                -0.455
REMARK SMILES CCN(CC)C(=O)[C@@H]1C=C2c3cccc4[nH]cc(c34)C[C@H]2N(C)C1
REMARK SMILES IDX 7 1 3 2 6 3 8 4 24 5 9 6 22 7 10 8 21 9 11 10 20 11 19 12
REMARK SMILES IDX 12 13 18 14 15 15 13 16 17 17 16 18 14 19 23 20 2 22 1 23
REMARK SMILES IDX 4 24 5 25
REMARK H PARENT 16 21
ROOT
ATOM      1  O   UNL     1      39.436  29.092  61.987  1.00  0.00    -0.274 OA
ATOM      2  N   UNL     1      38.330  30.184  60.309  1.00  0.00    -0.343 N 
ATOM      3  C   UNL     1      39.229  29.222  60.772  1.00  0.00     0.230 C 
ENDROOT
BRANCH   3   4
ATOM      4  C   UNL     1      39.996  28.288  59.818  1.00  0.00     0.116 C 
ATOM      5  C   UNL     1      40.957  29.063  58.897  1.00  0.00     0.102 C 
ATOM      6  C   UNL     1      39.095  27.331  59.081  1.00  0.00    -0.007 C 
ATOM      7  N   UNL     1      41.592  28.248  57.841  1.00  0.00    -0.298 NA
ATOM      8  C   UNL     1      39.337  27.016  57.796  1.00  0.00    -0.026 C 
ATOM      9  C   UNL     1      40.582  27.530  57.020  1.00  0.00     0.091 C 
ATOM     10  C   UNL     1      38.350  26.276  56.983  1.00  0.00    -0.011 A 
ATOM     11  C   UNL     1      40.181  28.387  55.763  1.00  0.00     0.061 C 
ATOM     12  C   UNL     1      38.330  26.690  55.640  1.00  0.00     0.010 A 
ATOM     13  C   UNL     1      37.446  25.289  57.375  1.00  0.00     0.009 A 
ATOM     14  C   UNL     1      39.128  27.660  54.985  1.00  0.00    -0.020 A 
ATOM     15  C   UNL     1      37.448  26.143  54.724  1.00  0.00     0.046 A 
ATOM     16  C   UNL     1      36.558  24.736  56.440  1.00  0.00     0.003 A 
ATOM     17  C   UNL     1      38.716  27.700  53.672  1.00  0.00     0.087 A 
ATOM     18  N   UNL     1      37.701  26.777  53.526  1.00  0.00    -0.361 N 
ATOM     19  C   UNL     1      36.537  25.151  55.096  1.00  0.00     0.027 A 
ATOM     20  C   UNL     1      42.566  27.312  58.411  1.00  0.00     0.106 C 
ATOM     21  H   UNL     1      37.211  26.587  52.663  1.00  0.00     0.166 HD
ENDBRANCH   3   4
BRANCH   2  22
ATOM     22  C   UNL     1      37.612  30.955  61.332  1.00  0.00     0.116 C 
ATOM     23  C   UNL     1      37.712  32.455  61.098  1.00  0.00     0.027 C 
ENDBRANCH   2  22
BRANCH   2  24
ATOM     24  C   UNL     1      37.860  30.340  58.925  1.00  0.00     0.116 C 
ATOM     25  C   UNL     1      36.458  29.784  58.709  1.00  0.00     0.027 C 
ENDBRANCH   2  24
TORSDOF 3
ENDMDL
MODEL 18
REMARK VINA RESULT:    -7.280      4.597      6.176
REMARK INTER + INTRA:          -9.012
REMARK INTER:                  -8.520
REMARK INTRA:                  -0.491
REMARK UNBOUND:                -0.455
REMARK SMILES CCN(CC)C(=O)[C@@H]1C=C2c3cccc4[nH]cc(c34)C[C@H]2N(C)C1
REMARK SMILES IDX 7 1 3 2 6 3 8 4 24 5 9 6 22 7 10 8 21 9 11 10 20 11 19 12
REMARK SMILES IDX 12 13 18 14 15 15 13 16 17 17 16 18 14 19 23 20 2 22 1 23
REMARK SMILES IDX 4 24 5 25
REMARK H PARENT 16 21
ROOT
ATOM      1  O   UNL     1      40.586  30.131  65.742  1.00  0.00    -0.274 OA
ATOM      2  N   UNL     1      42.853  30.353  65.941  1.00  0.00    -0.343 N 
ATOM      3  C   UNL     1      41.649  30.552  65.264  1.00  0.00     0.230 C 
ENDROOT
BRANCH   3   4
ATOM      4  C   UNL     1      41.578  31.288  63.913  1.00  0.00     0.116 C 
ATOM      5  C   UNL     1      40.614  32.489  63.959  1.00  0.00     0.102 C 
ATOM      6  C   UNL     1      41.332  30.360  62.752  1.00  0.00    -0.007 C 
ATOM      7  N   UNL     1      40.366  33.130  62.651  1.00  0.00    -0.298 NA
ATOM      8  C   UNL     1      40.534  30.735  61.735  1.00  0.00    -0.026 C 
ATOM      9  C   UNL     1      39.895  32.148  61.639  1.00  0.00     0.091 C 
ATOM     10  C   UNL     1      40.087  29.771  60.708  1.00  0.00    -0.011 A 
ATOM     11  C   UNL     1      38.323  32.085  61.620  1.00  0.00     0.061 C 
ATOM     12  C   UNL     1      38.777  30.018  60.261  1.00  0.00     0.010 A 
ATOM     13  C   UNL     1      40.759  28.668  60.180  1.00  0.00     0.009 A 
ATOM     14  C   UNL     1      37.881  31.054  60.628  1.00  0.00    -0.020 A 
ATOM     15  C   UNL     1      38.163  29.204  59.327  1.00  0.00     0.046 A 
ATOM     16  C   UNL     1      40.130  27.850  59.229  1.00  0.00     0.003 A 
ATOM     17  C   UNL     1      36.722  30.853  59.915  1.00  0.00     0.087 A 
ATOM     18  N   UNL     1      36.904  29.733  59.130  1.00  0.00    -0.361 N 
ATOM     19  C   UNL     1      38.820  28.098  58.783  1.00  0.00     0.027 A 
ATOM     20  C   UNL     1      41.557  33.842  62.178  1.00  0.00     0.106 C 
ATOM     21  H   UNL     1      36.216  29.351  58.496  1.00  0.00     0.166 HD
ENDBRANCH   3   4
BRANCH   2  22
ATOM     22  C   UNL     1      42.766  29.701  67.254  1.00  0.00     0.116 C 
ATOM     23  C   UNL     1      43.878  28.684  67.467  1.00  0.00     0.027 C 
ENDBRANCH   2  22
BRANCH   2  24
ATOM     24  C   UNL     1      44.156  30.934  65.586  1.00  0.00     0.116 C 
ATOM     25  C   UNL     1      44.440  32.241  66.314  1.00  0.00     0.027 C 
ENDBRANCH   2  24
TORSDOF 3
ENDMDL
MODEL 19
REMARK VINA RESULT:    -7.196      4.306      6.079
REMARK INTER + INTRA:          -8.913
REMARK INTER:                  -8.435
REMARK INTRA:                  -0.478
REMARK UNBOUND:                -0.455
REMARK SMILES CCN(CC)C(=O)[C@@H]1C=C2c3cccc4[nH]cc(c34)C[C@H]2N(C)C1
REMARK SMILES IDX 7 1 3 2 6 3 8 4 24 5 9 6 22 7 10 8 21 9 11 10 20 11 19 12
REMARK SMILES IDX 12 13 18 14 15 15 13 16 17 17 16 18 14 19 23 20 2 22 1 23
REMARK SMILES IDX 4 24 5 25
REMARK H PARENT 16 21
ROOT
ATOM      1  O   UNL     1      41.009  28.362  64.127  1.00  0.00    -0.274 OA
ATOM      2  N   UNL     1      42.876  29.415  64.923  1.00  0.00    -0.343 N 
ATOM      3  C   UNL     1      41.791  29.320  64.050  1.00  0.00     0.230 C 
ENDROOT
BRANCH   3   4
ATOM      4  C   UNL     1      41.512  30.379  62.968  1.00  0.00     0.116 C 
ATOM      5  C   UNL     1      40.668  31.549  63.506  1.00  0.00     0.102 C 
ATOM      6  C   UNL     1      40.976  29.785  61.691  1.00  0.00    -0.007 C 
ATOM      7  N   UNL     1      40.218  32.509  62.476  1.00  0.00    -0.298 NA
ATOM      8  C   UNL     1      40.026  30.424  60.986  1.00  0.00    -0.026 C 
ATOM      9  C   UNL     1      39.487  31.829  61.375  1.00  0.00     0.091 C 
ATOM     10  C   UNL     1      39.316  29.766  59.869  1.00  0.00    -0.011 A 
ATOM     11  C   UNL     1      37.941  31.808  61.667  1.00  0.00     0.061 C 
ATOM     12  C   UNL     1      37.967  30.148  59.779  1.00  0.00     0.010 A 
ATOM     13  C   UNL     1      39.789  28.820  58.959  1.00  0.00     0.009 A 
ATOM     14  C   UNL     1      37.239  31.075  60.566  1.00  0.00    -0.020 A 
ATOM     15  C   UNL     1      37.123  29.614  58.821  1.00  0.00     0.046 A 
ATOM     16  C   UNL     1      38.928  28.286  57.988  1.00  0.00     0.003 A 
ATOM     17  C   UNL     1      35.952  31.089  60.082  1.00  0.00     0.087 A 
ATOM     18  N   UNL     1      35.894  30.203  59.026  1.00  0.00    -0.361 N 
ATOM     19  C   UNL     1      37.578  28.669  57.898  1.00  0.00     0.027 A 
ATOM     20  C   UNL     1      41.343  33.291  61.956  1.00  0.00     0.106 C 
ATOM     21  H   UNL     1      35.068  30.012  58.475  1.00  0.00     0.166 HD
ENDBRANCH   3   4
BRANCH   2  22
ATOM     22  C   UNL     1      42.980  28.375  65.955  1.00  0.00     0.116 C 
ATOM     23  C   UNL     1      44.206  27.493  65.763  1.00  0.00     0.027 C 
ENDBRANCH   2  22
BRANCH   2  24
ATOM     24  C   UNL     1      43.782  30.564  65.062  1.00  0.00     0.116 C 
ATOM     25  C   UNL     1      43.366  31.515  66.177  1.00  0.00     0.027 C 
ENDBRANCH   2  24
TORSDOF 3
ENDMDL
