MODEL 1
REMARK VINA RESULT:    -8.924      0.000      0.000
REMARK INTER + INTRA:         -10.909
REMARK INTER:                 -10.490
REMARK INTRA:                  -0.419
REMARK UNBOUND:                -0.419
REMARK SMILES CCN(CC)C(=O)[C@@H]1C=C2c3cccc4[nH]cc(c34)C[C@H]2N(C)C1
REMARK SMILES IDX 7 1 3 2 6 3 8 4 24 5 9 6 22 7 10 8 21 9 11 10 20 11 19 12
REMARK SMILES IDX 12 13 18 14 15 15 13 16 17 17 16 18 14 19 23 20 2 22 1 23
REMARK SMILES IDX 4 24 5 25
REMARK H PARENT 16 21
ROOT
ATOM      1  O   UNL     1      19.441 -28.246  88.294  1.00  0.00    -0.274 OA
ATOM      2  N   UNL     1      21.491 -27.748  89.175  1.00  0.00    -0.343 N 
ATOM      3  C   UNL     1      20.391 -27.454  88.369  1.00  0.00     0.230 C 
ENDROOT
BRANCH   3   4
ATOM      4  C   UNL     1      20.298 -26.156  87.546  1.00  0.00     0.116 C 
ATOM      5  C   UNL     1      18.966 -25.417  87.776  1.00  0.00     0.102 C 
ATOM      6  C   UNL     1      20.631 -26.359  86.091  1.00  0.00    -0.007 C 
ATOM      7  N   UNL     1      18.741 -24.260  86.886  1.00  0.00    -0.298 NA
ATOM      8  C   UNL     1      19.952 -25.700  85.135  1.00  0.00    -0.026 C 
ATOM      9  C   UNL     1      18.862 -24.639  85.453  1.00  0.00     0.091 C 
ATOM     10  C   UNL     1      20.091 -26.050  83.706  1.00  0.00    -0.011 A 
ATOM     11  C   UNL     1      17.458 -25.040  84.866  1.00  0.00     0.061 C 
ATOM     12  C   UNL     1      18.889 -25.912  82.991  1.00  0.00     0.010 A 
ATOM     13  C   UNL     1      21.209 -26.520  83.018  1.00  0.00     0.009 A 
ATOM     14  C   UNL     1      17.621 -25.463  83.439  1.00  0.00    -0.020 A 
ATOM     15  C   UNL     1      18.803 -26.227  81.646  1.00  0.00     0.046 A 
ATOM     16  C   UNL     1      21.115 -26.833  81.653  1.00  0.00     0.003 A 
ATOM     17  C   UNL     1      16.771 -25.517  82.359  1.00  0.00     0.087 A 
ATOM     18  N   UNL     1      17.497 -25.978  81.280  1.00  0.00    -0.361 N 
ATOM     19  C   UNL     1      19.912 -26.695  80.938  1.00  0.00     0.027 A 
ATOM     20  C   UNL     1      19.646 -23.156  87.216  1.00  0.00     0.106 C 
ATOM     21  H   UNL     1      17.128 -26.114  80.349  1.00  0.00     0.166 HD
ENDBRANCH   3   4
BRANCH   2  22
ATOM     22  C   UNL     1      21.415 -28.984  89.963  1.00  0.00     0.116 C 
ATOM     23  C   UNL     1      22.683 -29.818  89.853  1.00  0.00     0.027 C 
ENDBRANCH   2  22
BRANCH   2  24
ATOM     24  C   UNL     1      22.603 -26.840  89.493  1.00  0.00     0.116 C 
ATOM     25  C   UNL     1      23.651 -26.779  88.390  1.00  0.00     0.027 C 
ENDBRANCH   2  24
TORSDOF 3
ENDMDL
MODEL 2
REMARK VINA RESULT:    -8.025      2.318      7.358
REMARK INTER + INTRA:          -9.852
REMARK INTER:                  -9.414
REMARK INTRA:                  -0.438
REMARK UNBOUND:                -0.419
REMARK SMILES CCN(CC)C(=O)[C@@H]1C=C2c3cccc4[nH]cc(c34)C[C@H]2N(C)C1
REMARK SMILES IDX 7 1 3 2 6 3 8 4 24 5 9 6 22 7 10 8 21 9 11 10 20 11 19 12
REMARK SMILES IDX 12 13 18 14 15 15 13 16 17 17 16 18 14 19 23 20 2 22 1 23
REMARK SMILES IDX 4 24 5 25
REMARK H PARENT 16 21
ROOT
ATOM      1  O   UNL     1      20.414 -26.042  84.849  1.00  0.00    -0.274 OA
ATOM      2  N   UNL     1      18.600 -24.802  85.483  1.00  0.00    -0.343 N 
ATOM      3  C   UNL     1      19.854 -25.367  85.724  1.00  0.00     0.230 C 
ENDROOT
BRANCH   3   4
ATOM      4  C   UNL     1      20.593 -25.187  87.062  1.00  0.00     0.116 C 
ATOM      5  C   UNL     1      22.123 -25.243  86.891  1.00  0.00     0.102 C 
ATOM      6  C   UNL     1      20.074 -26.095  88.147  1.00  0.00    -0.007 C 
ATOM      7  N   UNL     1      22.885 -25.252  88.157  1.00  0.00    -0.298 NA
ATOM      8  C   UNL     1      20.918 -26.657  89.030  1.00  0.00    -0.026 C 
ATOM      9  C   UNL     1      22.442 -26.350  89.056  1.00  0.00     0.091 C 
ATOM     10  C   UNL     1      20.477 -27.727  89.949  1.00  0.00    -0.011 A 
ATOM     11  C   UNL     1      23.308 -27.642  88.820  1.00  0.00     0.061 C 
ATOM     12  C   UNL     1      21.474 -28.689  90.184  1.00  0.00     0.010 A 
ATOM     13  C   UNL     1      19.233 -27.915  90.551  1.00  0.00     0.009 A 
ATOM     14  C   UNL     1      22.806 -28.742  89.703  1.00  0.00    -0.020 A 
ATOM     15  C   UNL     1      21.243 -29.792  90.988  1.00  0.00     0.046 A 
ATOM     16  C   UNL     1      19.009 -29.034  91.369  1.00  0.00     0.003 A 
ATOM     17  C   UNL     1      23.373 -29.886  90.215  1.00  0.00     0.087 A 
ATOM     18  N   UNL     1      22.419 -30.512  90.992  1.00  0.00    -0.361 N 
ATOM     19  C   UNL     1      20.006 -29.997  91.604  1.00  0.00     0.027 A 
ATOM     20  C   UNL     1      22.803 -23.954  88.833  1.00  0.00     0.106 C 
ATOM     21  H   UNL     1      22.560 -31.376  91.497  1.00  0.00     0.166 HD
ENDBRANCH   3   4
BRANCH   2  22
ATOM     22  C   UNL     1      18.044 -24.991  84.138  1.00  0.00     0.116 C 
ATOM     23  C   UNL     1      16.571 -25.374  84.171  1.00  0.00     0.027 C 
ENDBRANCH   2  22
BRANCH   2  24
ATOM     24  C   UNL     1      17.896 -23.848  86.352  1.00  0.00     0.116 C 
ATOM     25  C   UNL     1      18.451 -22.434  86.252  1.00  0.00     0.027 C 
ENDBRANCH   2  24
TORSDOF 3
ENDMDL
MODEL 3
REMARK VINA RESULT:    -7.674      2.447      7.168
REMARK INTER + INTRA:          -9.439
REMARK INTER:                  -9.259
REMARK INTRA:                  -0.181
REMARK UNBOUND:                -0.419
REMARK SMILES CCN(CC)C(=O)[C@@H]1C=C2c3cccc4[nH]cc(c34)C[C@H]2N(C)C1
REMARK SMILES IDX 7 1 3 2 6 3 8 4 24 5 9 6 22 7 10 8 21 9 11 10 20 11 19 12
REMARK SMILES IDX 12 13 18 14 15 15 13 16 17 17 16 18 14 19 23 20 2 22 1 23
REMARK SMILES IDX 4 24 5 25
REMARK H PARENT 16 21
ROOT
ATOM      1  O   UNL     1      20.805 -25.448  84.867  1.00  0.00    -0.274 OA
ATOM      2  N   UNL     1      18.533 -25.419  85.122  1.00  0.00    -0.343 N 
ATOM      3  C   UNL     1      19.829 -25.532  85.626  1.00  0.00     0.230 C 
ENDROOT
BRANCH   3   4
ATOM      4  C   UNL     1      20.112 -25.761  87.122  1.00  0.00     0.116 C 
ATOM      5  C   UNL     1      19.917 -24.479  87.952  1.00  0.00     0.102 C 
ATOM      6  C   UNL     1      21.431 -26.446  87.371  1.00  0.00    -0.007 C 
ATOM      7  N   UNL     1      20.341 -24.587  89.363  1.00  0.00    -0.298 NA
ATOM      8  C   UNL     1      22.196 -26.095  88.420  1.00  0.00    -0.026 C 
ATOM      9  C   UNL     1      21.749 -25.048  89.479  1.00  0.00     0.091 C 
ATOM     10  C   UNL     1      23.587 -26.574  88.558  1.00  0.00    -0.011 A 
ATOM     11  C   UNL     1      22.730 -23.818  89.543  1.00  0.00     0.061 C 
ATOM     12  C   UNL     1      24.440 -25.615  89.131  1.00  0.00     0.010 A 
ATOM     13  C   UNL     1      24.144 -27.792  88.167  1.00  0.00     0.009 A 
ATOM     14  C   UNL     1      24.141 -24.315  89.609  1.00  0.00    -0.020 A 
ATOM     15  C   UNL     1      25.791 -25.859  89.311  1.00  0.00     0.046 A 
ATOM     16  C   UNL     1      25.513 -28.033  88.357  1.00  0.00     0.003 A 
ATOM     17  C   UNL     1      25.320 -23.775  90.069  1.00  0.00     0.087 A 
ATOM     18  N   UNL     1      26.310 -24.718  89.885  1.00  0.00    -0.361 N 
ATOM     19  C   UNL     1      26.366 -27.073  88.930  1.00  0.00     0.027 A 
ATOM     20  C   UNL     1      19.439 -25.460  90.120  1.00  0.00     0.106 C 
ATOM     21  H   UNL     1      27.281 -24.596  90.138  1.00  0.00     0.166 HD
ENDBRANCH   3   4
BRANCH   2  22
ATOM     22  C   UNL     1      18.410 -25.127  83.688  1.00  0.00     0.116 C 
ATOM     23  C   UNL     1      17.044 -25.507  83.137  1.00  0.00     0.027 C 
ENDBRANCH   2  22
BRANCH   2  24
ATOM     24  C   UNL     1      17.297 -25.330  85.913  1.00  0.00     0.116 C 
ATOM     25  C   UNL     1      16.951 -23.902  86.313  1.00  0.00     0.027 C 
ENDBRANCH   2  24
TORSDOF 3
ENDMDL
MODEL 4
REMARK VINA RESULT:    -7.669      2.468      7.213
REMARK INTER + INTRA:          -9.433
REMARK INTER:                  -9.145
REMARK INTRA:                  -0.288
REMARK UNBOUND:                -0.419
REMARK SMILES CCN(CC)C(=O)[C@@H]1C=C2c3cccc4[nH]cc(c34)C[C@H]2N(C)C1
REMARK SMILES IDX 7 1 3 2 6 3 8 4 24 5 9 6 22 7 10 8 21 9 11 10 20 11 19 12
REMARK SMILES IDX 12 13 18 14 15 15 13 16 17 17 16 18 14 19 23 20 2 22 1 23
REMARK SMILES IDX 4 24 5 25
REMARK H PARENT 16 21
ROOT
ATOM      1  O   UNL     1      18.808 -24.244  88.912  1.00  0.00    -0.274 OA
ATOM      2  N   UNL     1      18.738 -24.463  86.636  1.00  0.00    -0.343 N 
ATOM      3  C   UNL     1      19.189 -24.849  87.899  1.00  0.00     0.230 C 
ENDROOT
BRANCH   3   4
ATOM      4  C   UNL     1      20.164 -26.024  88.100  1.00  0.00     0.116 C 
ATOM      5  C   UNL     1      20.210 -26.495  89.566  1.00  0.00     0.102 C 
ATOM      6  C   UNL     1      21.525 -25.765  87.508  1.00  0.00    -0.007 C 
ATOM      7  N   UNL     1      21.252 -27.499  89.859  1.00  0.00    -0.298 NA
ATOM      8  C   UNL     1      22.636 -26.186  88.138  1.00  0.00    -0.026 C 
ATOM      9  C   UNL     1      22.600 -27.029  89.443  1.00  0.00     0.091 C 
ATOM     10  C   UNL     1      23.981 -25.747  87.710  1.00  0.00    -0.011 A 
ATOM     11  C   UNL     1      23.324 -26.301  90.636  1.00  0.00     0.061 C 
ATOM     12  C   UNL     1      24.867 -25.575  88.788  1.00  0.00     0.010 A 
ATOM     13  C   UNL     1      24.448 -25.453  86.429  1.00  0.00     0.009 A 
ATOM     14  C   UNL     1      24.655 -25.796  90.172  1.00  0.00    -0.020 A 
ATOM     15  C   UNL     1      26.164 -25.132  88.598  1.00  0.00     0.046 A 
ATOM     16  C   UNL     1      25.766 -25.009  86.244  1.00  0.00     0.003 A 
ATOM     17  C   UNL     1      25.829 -25.477  90.814  1.00  0.00     0.087 A 
ATOM     18  N   UNL     1      26.735 -25.078  89.852  1.00  0.00    -0.361 N 
ATOM     19  C   UNL     1      26.652 -24.837  87.323  1.00  0.00     0.027 A 
ATOM     20  C   UNL     1      20.932 -28.789  89.240  1.00  0.00     0.106 C 
ATOM     21  H   UNL     1      27.686 -24.788  90.037  1.00  0.00     0.166 HD
ENDBRANCH   3   4
BRANCH   2  22
ATOM     22  C   UNL     1      17.753 -23.375  86.597  1.00  0.00     0.116 C 
ATOM     23  C   UNL     1      18.405 -22.014  86.400  1.00  0.00     0.027 C 
ENDBRANCH   2  22
BRANCH   2  24
ATOM     24  C   UNL     1      18.966 -25.182  85.375  1.00  0.00     0.116 C 
ATOM     25  C   UNL     1      17.816 -25.027  84.388  1.00  0.00     0.027 C 
ENDBRANCH   2  24
TORSDOF 3
ENDMDL
MODEL 5
REMARK VINA RESULT:    -7.655      4.193      6.858
REMARK INTER + INTRA:          -9.417
REMARK INTER:                  -8.862
REMARK INTRA:                  -0.555
REMARK UNBOUND:                -0.419
REMARK SMILES CCN(CC)C(=O)[C@@H]1C=C2c3cccc4[nH]cc(c34)C[C@H]2N(C)C1
REMARK SMILES IDX 7 1 3 2 6 3 8 4 24 5 9 6 22 7 10 8 21 9 11 10 20 11 19 12
REMARK SMILES IDX 12 13 18 14 15 15 13 16 17 17 16 18 14 19 23 20 2 22 1 23
REMARK SMILES IDX 4 24 5 25
REMARK H PARENT 16 21
ROOT
ATOM      1  O   UNL     1      18.434 -29.112  88.526  1.00  0.00    -0.274 OA
ATOM      2  N   UNL     1      17.664 -29.056  90.678  1.00  0.00    -0.343 N 
ATOM      3  C   UNL     1      18.398 -28.525  89.616  1.00  0.00     0.230 C 
ENDROOT
BRANCH   3   4
ATOM      4  C   UNL     1      19.186 -27.208  89.739  1.00  0.00     0.116 C 
ATOM      5  C   UNL     1      19.215 -26.424  88.414  1.00  0.00     0.102 C 
ATOM      6  C   UNL     1      20.546 -27.394  90.359  1.00  0.00    -0.007 C 
ATOM      7  N   UNL     1      20.100 -25.241  88.416  1.00  0.00    -0.298 NA
ATOM      8  C   UNL     1      21.602 -26.690  89.915  1.00  0.00    -0.026 C 
ATOM      9  C   UNL     1      21.486 -25.595  88.818  1.00  0.00     0.091 C 
ATOM     10  C   UNL     1      22.981 -27.016  90.334  1.00  0.00    -0.011 A 
ATOM     11  C   UNL     1      22.361 -25.930  87.553  1.00  0.00     0.061 C 
ATOM     12  C   UNL     1      23.925 -26.817  89.311  1.00  0.00     0.010 A 
ATOM     13  C   UNL     1      23.438 -27.515  91.555  1.00  0.00     0.009 A 
ATOM     14  C   UNL     1      23.735 -26.329  87.994  1.00  0.00    -0.020 A 
ATOM     15  C   UNL     1      25.266 -27.101  89.495  1.00  0.00     0.046 A 
ATOM     16  C   UNL     1      24.801 -27.796  91.735  1.00  0.00     0.003 A 
ATOM     17  C   UNL     1      24.968 -26.329  87.385  1.00  0.00     0.087 A 
ATOM     18  N   UNL     1      25.887 -26.796  88.303  1.00  0.00    -0.361 N 
ATOM     19  C   UNL     1      25.744 -27.597  90.711  1.00  0.00     0.027 A 
ATOM     20  C   UNL     1      19.559 -24.179  89.270  1.00  0.00     0.106 C 
ATOM     21  H   UNL     1      26.878 -26.898  88.130  1.00  0.00     0.166 HD
ENDBRANCH   3   4
BRANCH   2  22
ATOM     22  C   UNL     1      16.900 -30.278  90.400  1.00  0.00     0.116 C 
ATOM     23  C   UNL     1      15.529 -30.265  91.062  1.00  0.00     0.027 C 
ENDBRANCH   2  22
BRANCH   2  24
ATOM     24  C   UNL     1      17.392 -28.396  91.963  1.00  0.00     0.116 C 
ATOM     25  C   UNL     1      18.372 -28.800  93.056  1.00  0.00     0.027 C 
ENDBRANCH   2  24
TORSDOF 3
ENDMDL
MODEL 6
REMARK VINA RESULT:    -7.575      1.967      7.178
REMARK INTER + INTRA:          -9.323
REMARK INTER:                  -8.951
REMARK INTRA:                  -0.372
REMARK UNBOUND:                -0.419
REMARK SMILES CCN(CC)C(=O)[C@@H]1C=C2c3cccc4[nH]cc(c34)C[C@H]2N(C)C1
REMARK SMILES IDX 7 1 3 2 6 3 8 4 24 5 9 6 22 7 10 8 21 9 11 10 20 11 19 12
REMARK SMILES IDX 12 13 18 14 15 15 13 16 17 17 16 18 14 19 23 20 2 22 1 23
REMARK SMILES IDX 4 24 5 25
REMARK H PARENT 16 21
ROOT
ATOM      1  O   UNL     1      21.812 -25.909  84.435  1.00  0.00    -0.274 OA
ATOM      2  N   UNL     1      19.681 -25.958  83.607  1.00  0.00    -0.343 N 
ATOM      3  C   UNL     1      20.594 -25.832  84.655  1.00  0.00     0.230 C 
ENDROOT
BRANCH   3   4
ATOM      4  C   UNL     1      20.150 -25.594  86.109  1.00  0.00     0.116 C 
ATOM      5  C   UNL     1      20.480 -24.168  86.591  1.00  0.00     0.102 C 
ATOM      6  C   UNL     1      20.620 -26.672  87.050  1.00  0.00    -0.007 C 
ATOM      7  N   UNL     1      20.240 -23.932  88.029  1.00  0.00    -0.298 NA
ATOM      8  C   UNL     1      21.024 -26.364  88.296  1.00  0.00    -0.026 C 
ATOM      9  C   UNL     1      20.954 -24.924  88.875  1.00  0.00     0.091 C 
ATOM     10  C   UNL     1      21.708 -27.354  89.154  1.00  0.00    -0.011 A 
ATOM     11  C   UNL     1      22.374 -24.382  89.283  1.00  0.00     0.061 C 
ATOM     12  C   UNL     1      22.699 -26.780  89.968  1.00  0.00     0.010 A 
ATOM     13  C   UNL     1      21.527 -28.736  89.223  1.00  0.00     0.009 A 
ATOM     14  C   UNL     1      23.086 -25.422  90.092  1.00  0.00    -0.020 A 
ATOM     15  C   UNL     1      23.477 -27.547  90.816  1.00  0.00     0.046 A 
ATOM     16  C   UNL     1      22.317 -29.507  90.090  1.00  0.00     0.003 A 
ATOM     17  C   UNL     1      24.106 -25.378  91.014  1.00  0.00     0.087 A 
ATOM     18  N   UNL     1      24.333 -26.668  91.446  1.00  0.00    -0.361 N 
ATOM     19  C   UNL     1      23.309 -28.931  90.904  1.00  0.00     0.027 A 
ATOM     20  C   UNL     1      18.805 -23.921  88.330  1.00  0.00     0.106 C 
ATOM     21  H   UNL     1      25.027 -26.936  92.131  1.00  0.00     0.166 HD
ENDBRANCH   3   4
BRANCH   2  22
ATOM     22  C   UNL     1      20.245 -26.107  82.260  1.00  0.00     0.116 C 
ATOM     23  C   UNL     1      20.455 -27.566  81.881  1.00  0.00     0.027 C 
ENDBRANCH   2  22
BRANCH   2  24
ATOM     24  C   UNL     1      18.232 -25.723  83.685  1.00  0.00     0.116 C 
ATOM     25  C   UNL     1      17.626 -25.308  82.351  1.00  0.00     0.027 C 
ENDBRANCH   2  24
TORSDOF 3
ENDMDL
MODEL 7
REMARK VINA RESULT:    -7.551      4.562      7.748
REMARK INTER + INTRA:          -9.295
REMARK INTER:                  -8.921
REMARK INTRA:                  -0.374
REMARK UNBOUND:                -0.419
REMARK SMILES CCN(CC)C(=O)[C@@H]1C=C2c3cccc4[nH]cc(c34)C[C@H]2N(C)C1
REMARK SMILES IDX 7 1 3 2 6 3 8 4 24 5 9 6 22 7 10 8 21 9 11 10 20 11 19 12
REMARK SMILES IDX 12 13 18 14 15 15 13 16 17 17 16 18 14 19 23 20 2 22 1 23
REMARK SMILES IDX 4 24 5 25
REMARK H PARENT 16 21
ROOT
ATOM      1  O   UNL     1      26.680 -24.591  91.152  1.00  0.00    -0.274 OA
ATOM      2  N   UNL     1      27.800 -26.195  92.336  1.00  0.00    -0.343 N 
ATOM      3  C   UNL     1      27.019 -25.778  91.256  1.00  0.00     0.230 C 
ENDROOT
BRANCH   3   4
ATOM      4  C   UNL     1      26.548 -26.749  90.159  1.00  0.00     0.116 C 
ATOM      5  C   UNL     1      26.418 -26.057  88.789  1.00  0.00     0.102 C 
ATOM      6  C   UNL     1      25.325 -27.535  90.556  1.00  0.00    -0.007 C 
ATOM      7  N   UNL     1      25.803 -26.889  87.734  1.00  0.00    -0.298 NA
ATOM      8  C   UNL     1      24.364 -27.806  89.655  1.00  0.00    -0.026 C 
ATOM      9  C   UNL     1      24.479 -27.418  88.155  1.00  0.00     0.091 C 
ATOM     10  C   UNL     1      23.057 -28.361  90.063  1.00  0.00    -0.011 A 
ATOM     11  C   UNL     1      23.326 -26.446  87.706  1.00  0.00     0.061 C 
ATOM     12  C   UNL     1      21.991 -27.873  89.288  1.00  0.00     0.010 A 
ATOM     13  C   UNL     1      22.757 -29.240  91.104  1.00  0.00     0.009 A 
ATOM     14  C   UNL     1      22.013 -26.981  88.186  1.00  0.00    -0.020 A 
ATOM     15  C   UNL     1      20.681 -28.246  89.536  1.00  0.00     0.046 A 
ATOM     16  C   UNL     1      21.427 -29.617  91.347  1.00  0.00     0.003 A 
ATOM     17  C   UNL     1      20.710 -26.813  87.779  1.00  0.00     0.087 A 
ATOM     18  N   UNL     1      19.914 -27.584  88.602  1.00  0.00    -0.361 N 
ATOM     19  C   UNL     1      20.361 -29.128  90.571  1.00  0.00     0.027 A 
ATOM     20  C   UNL     1      26.699 -27.976  87.329  1.00  0.00     0.106 C 
ATOM     21  H   UNL     1      18.908 -27.658  88.530  1.00  0.00     0.166 HD
ENDBRANCH   3   4
BRANCH   2  22
ATOM     22  C   UNL     1      28.241 -25.149  93.268  1.00  0.00     0.116 C 
ATOM     23  C   UNL     1      28.925 -25.726  94.499  1.00  0.00     0.027 C 
ENDBRANCH   2  22
BRANCH   2  24
ATOM     24  C   UNL     1      28.414 -27.519  92.503  1.00  0.00     0.116 C 
ATOM     25  C   UNL     1      29.680 -27.694  91.675  1.00  0.00     0.027 C 
ENDBRANCH   2  24
TORSDOF 3
ENDMDL
MODEL 8
REMARK VINA RESULT:    -7.516      2.659      7.028
REMARK INTER + INTRA:          -9.254
REMARK INTER:                  -8.921
REMARK INTRA:                  -0.333
REMARK UNBOUND:                -0.419
REMARK SMILES CCN(CC)C(=O)[C@@H]1C=C2c3cccc4[nH]cc(c34)C[C@H]2N(C)C1
REMARK SMILES IDX 7 1 3 2 6 3 8 4 24 5 9 6 22 7 10 8 21 9 11 10 20 11 19 12
REMARK SMILES IDX 12 13 18 14 15 15 13 16 17 17 16 18 14 19 23 20 2 22 1 23
REMARK SMILES IDX 4 24 5 25
REMARK H PARENT 16 21
ROOT
ATOM      1  O   UNL     1      17.688 -25.657  83.225  1.00  0.00    -0.274 OA
ATOM      2  N   UNL     1      15.480 -25.294  83.695  1.00  0.00    -0.343 N 
ATOM      3  C   UNL     1      16.836 -25.236  84.020  1.00  0.00     0.230 C 
ENDROOT
BRANCH   3   4
ATOM      4  C   UNL     1      17.338 -24.658  85.356  1.00  0.00     0.116 C 
ATOM      5  C   UNL     1      18.465 -23.627  85.154  1.00  0.00     0.102 C 
ATOM      6  C   UNL     1      17.669 -25.722  86.369  1.00  0.00    -0.007 C 
ATOM      7  N   UNL     1      19.109 -23.165  86.401  1.00  0.00    -0.298 NA
ATOM      8  C   UNL     1      18.727 -25.582  87.187  1.00  0.00    -0.026 C 
ATOM      9  C   UNL     1      19.612 -24.305  87.212  1.00  0.00     0.091 C 
ATOM     10  C   UNL     1      19.214 -26.701  88.020  1.00  0.00    -0.011 A 
ATOM     11  C   UNL     1      21.112 -24.619  86.854  1.00  0.00     0.061 C 
ATOM     12  C   UNL     1      20.613 -26.710  88.157  1.00  0.00     0.010 A 
ATOM     13  C   UNL     1      18.492 -27.729  88.626  1.00  0.00     0.009 A 
ATOM     14  C   UNL     1      21.573 -25.800  87.650  1.00  0.00    -0.020 A 
ATOM     15  C   UNL     1      21.266 -27.701  88.870  1.00  0.00     0.046 A 
ATOM     16  C   UNL     1      19.162 -28.727  89.351  1.00  0.00     0.003 A 
ATOM     17  C   UNL     1      22.808 -26.252  88.055  1.00  0.00     0.087 A 
ATOM     18  N   UNL     1      22.610 -27.401  88.793  1.00  0.00    -0.361 N 
ATOM     19  C   UNL     1      20.562 -28.736  89.487  1.00  0.00     0.027 A 
ATOM     20  C   UNL     1      18.200 -22.323  87.185  1.00  0.00     0.106 C 
ATOM     21  H   UNL     1      23.344 -27.948  89.222  1.00  0.00     0.166 HD
ENDBRANCH   3   4
BRANCH   2  22
ATOM     22  C   UNL     1      15.148 -25.801  82.358  1.00  0.00     0.116 C 
ATOM     23  C   UNL     1      15.283 -24.729  81.285  1.00  0.00     0.027 C 
ENDBRANCH   2  22
BRANCH   2  24
ATOM     24  C   UNL     1      14.378 -24.686  84.455  1.00  0.00     0.116 C 
ATOM     25  C   UNL     1      13.027 -25.319  84.148  1.00  0.00     0.027 C 
ENDBRANCH   2  24
TORSDOF 3
ENDMDL
MODEL 9
REMARK VINA RESULT:    -7.514      3.536      6.553
REMARK INTER + INTRA:          -9.251
REMARK INTER:                  -9.192
REMARK INTRA:                  -0.060
REMARK UNBOUND:                -0.419
REMARK SMILES CCN(CC)C(=O)[C@@H]1C=C2c3cccc4[nH]cc(c34)C[C@H]2N(C)C1
REMARK SMILES IDX 7 1 3 2 6 3 8 4 24 5 9 6 22 7 10 8 21 9 11 10 20 11 19 12
REMARK SMILES IDX 12 13 18 14 15 15 13 16 17 17 16 18 14 19 23 20 2 22 1 23
REMARK SMILES IDX 4 24 5 25
REMARK H PARENT 16 21
ROOT
ATOM      1  O   UNL     1      18.857 -28.531  93.595  1.00  0.00    -0.274 OA
ATOM      2  N   UNL     1      17.241 -28.822  92.004  1.00  0.00    -0.343 N 
ATOM      3  C   UNL     1      18.574 -28.786  92.416  1.00  0.00     0.230 C 
ENDROOT
BRANCH   3   4
ATOM      4  C   UNL     1      19.742 -29.054  91.449  1.00  0.00     0.116 C 
ATOM      5  C   UNL     1      21.112 -28.851  92.124  1.00  0.00     0.102 C 
ATOM      6  C   UNL     1      19.599 -28.323  90.140  1.00  0.00    -0.007 C 
ATOM      7  N   UNL     1      22.267 -28.922  91.206  1.00  0.00    -0.298 NA
ATOM      8  C   UNL     1      20.677 -27.796  89.531  1.00  0.00    -0.026 C 
ATOM      9  C   UNL     1      22.124 -27.974  90.069  1.00  0.00     0.091 C 
ATOM     10  C   UNL     1      20.543 -26.878  88.380  1.00  0.00    -0.011 A 
ATOM     11  C   UNL     1      22.801 -26.595  90.409  1.00  0.00     0.061 C 
ATOM     12  C   UNL     1      21.520 -25.869  88.371  1.00  0.00     0.010 A 
ATOM     13  C   UNL     1      19.582 -26.865  87.369  1.00  0.00     0.009 A 
ATOM     14  C   UNL     1      22.597 -25.649  89.267  1.00  0.00    -0.020 A 
ATOM     15  C   UNL     1      21.543 -24.888  87.395  1.00  0.00     0.046 A 
ATOM     16  C   UNL     1      19.614 -25.870  86.380  1.00  0.00     0.003 A 
ATOM     17  C   UNL     1      23.262 -24.527  88.829  1.00  0.00     0.087 A 
ATOM     18  N   UNL     1      22.616 -24.076  87.695  1.00  0.00    -0.361 N 
ATOM     19  C   UNL     1      20.592 -24.859  86.372  1.00  0.00     0.027 A 
ATOM     20  C   UNL     1      22.478 -30.291  90.726  1.00  0.00     0.106 C 
ATOM     21  H   UNL     1      22.891 -23.267  87.156  1.00  0.00     0.166 HD
ENDBRANCH   3   4
BRANCH   2  22
ATOM     22  C   UNL     1      16.228 -28.621  93.046  1.00  0.00     0.116 C 
ATOM     23  C   UNL     1      15.062 -27.771  92.560  1.00  0.00     0.027 C 
ENDBRANCH   2  22
BRANCH   2  24
ATOM     24  C   UNL     1      16.749 -29.271  90.694  1.00  0.00     0.116 C 
ATOM     25  C   UNL     1      16.238 -30.705  90.712  1.00  0.00     0.027 C 
ENDBRANCH   2  24
TORSDOF 3
ENDMDL
MODEL 10
REMARK VINA RESULT:    -7.405      1.699      2.521
REMARK INTER + INTRA:          -9.123
REMARK INTER:                  -8.919
REMARK INTRA:                  -0.204
REMARK UNBOUND:                -0.419
REMARK SMILES CCN(CC)C(=O)[C@@H]1C=C2c3cccc4[nH]cc(c34)C[C@H]2N(C)C1
REMARK SMILES IDX 7 1 3 2 6 3 8 4 24 5 9 6 22 7 10 8 21 9 11 10 20 11 19 12
REMARK SMILES IDX 12 13 18 14 15 15 13 16 17 17 16 18 14 19 23 20 2 22 1 23
REMARK SMILES IDX 4 24 5 25
REMARK H PARENT 16 21
ROOT
ATOM      1  O   UNL     1      23.269 -28.297  89.252  1.00  0.00    -0.274 OA
ATOM      2  N   UNL     1      21.062 -28.387  89.847  1.00  0.00    -0.343 N 
ATOM      3  C   UNL     1      22.154 -27.755  89.250  1.00  0.00     0.230 C 
ENDROOT
BRANCH   3   4
ATOM      4  C   UNL     1      22.037 -26.378  88.570  1.00  0.00     0.116 C 
ATOM      5  C   UNL     1      21.095 -25.431  89.338  1.00  0.00     0.102 C 
ATOM      6  C   UNL     1      21.727 -26.474  87.099  1.00  0.00    -0.007 C 
ATOM      7  N   UNL     1      20.802 -24.159  88.647  1.00  0.00    -0.298 NA
ATOM      8  C   UNL     1      20.893 -25.594  86.517  1.00  0.00    -0.026 C 
ATOM      9  C   UNL     1      20.273 -24.388  87.277  1.00  0.00     0.091 C 
ATOM     10  C   UNL     1      20.387 -25.799  85.144  1.00  0.00    -0.011 A 
ATOM     11  C   UNL     1      18.700 -24.447  87.295  1.00  0.00     0.061 C 
ATOM     12  C   UNL     1      19.064 -25.356  84.978  1.00  0.00     0.010 A 
ATOM     13  C   UNL     1      21.018 -26.392  84.051  1.00  0.00     0.009 A 
ATOM     14  C   UNL     1      18.201 -24.728  85.911  1.00  0.00    -0.020 A 
ATOM     15  C   UNL     1      18.397 -25.494  83.774  1.00  0.00     0.046 A 
ATOM     16  C   UNL     1      20.336 -26.525  82.831  1.00  0.00     0.003 A 
ATOM     17  C   UNL     1      17.009 -24.497  85.264  1.00  0.00     0.087 A 
ATOM     18  N   UNL     1      17.140 -24.962  83.972  1.00  0.00    -0.361 N 
ATOM     19  C   UNL     1      19.012 -26.081  82.666  1.00  0.00     0.027 A 
ATOM     20  C   UNL     1      21.983 -23.291  88.616  1.00  0.00     0.106 C 
ATOM     21  H   UNL     1      16.418 -24.919  83.265  1.00  0.00     0.166 HD
ENDBRANCH   3   4
BRANCH   2  22
ATOM     22  C   UNL     1      21.300 -29.729  90.392  1.00  0.00     0.116 C 
ATOM     23  C   UNL     1      20.593 -29.944  91.722  1.00  0.00     0.027 C 
ENDBRANCH   2  22
BRANCH   2  24
ATOM     24  C   UNL     1      19.661 -27.950  89.776  1.00  0.00     0.116 C 
ATOM     25  C   UNL     1      18.937 -28.478  88.545  1.00  0.00     0.027 C 
ENDBRANCH   2  24
TORSDOF 3
ENDMDL
MODEL 11
REMARK VINA RESULT:    -7.390      4.809      7.156
REMARK INTER + INTRA:          -9.105
REMARK INTER:                  -8.784
REMARK INTRA:                  -0.321
REMARK UNBOUND:                -0.419
REMARK SMILES CCN(CC)C(=O)[C@@H]1C=C2c3cccc4[nH]cc(c34)C[C@H]2N(C)C1
REMARK SMILES IDX 7 1 3 2 6 3 8 4 24 5 9 6 22 7 10 8 21 9 11 10 20 11 19 12
REMARK SMILES IDX 12 13 18 14 15 15 13 16 17 17 16 18 14 19 23 20 2 22 1 23
REMARK SMILES IDX 4 24 5 25
REMARK H PARENT 16 21
ROOT
ATOM      1  O   UNL     1      28.204 -27.895  91.185  1.00  0.00    -0.274 OA
ATOM      2  N   UNL     1      27.133 -25.946  91.718  1.00  0.00    -0.343 N 
ATOM      3  C   UNL     1      27.388 -27.020  90.863  1.00  0.00     0.230 C 
ENDROOT
BRANCH   3   4
ATOM      4  C   UNL     1      26.684 -27.173  89.503  1.00  0.00     0.116 C 
ATOM      5  C   UNL     1      26.710 -25.867  88.686  1.00  0.00     0.102 C 
ATOM      6  C   UNL     1      25.312 -27.785  89.617  1.00  0.00    -0.007 C 
ATOM      7  N   UNL     1      25.902 -25.896  87.450  1.00  0.00    -0.298 NA
ATOM      8  C   UNL     1      24.305 -27.355  88.836  1.00  0.00    -0.026 C 
ATOM      9  C   UNL     1      24.494 -26.286  87.724  1.00  0.00     0.091 C 
ATOM     10  C   UNL     1      22.906 -27.763  89.084  1.00  0.00    -0.011 A 
ATOM     11  C   UNL     1      23.605 -25.011  87.973  1.00  0.00     0.061 C 
ATOM     12  C   UNL     1      21.981 -26.743  88.802  1.00  0.00     0.010 A 
ATOM     13  C   UNL     1      22.414 -28.970  89.582  1.00  0.00     0.009 A 
ATOM     14  C   UNL     1      22.207 -25.439  88.295  1.00  0.00    -0.020 A 
ATOM     15  C   UNL     1      20.623 -26.917  89.004  1.00  0.00     0.046 A 
ATOM     16  C   UNL     1      21.035 -29.140  89.780  1.00  0.00     0.003 A 
ATOM     17  C   UNL     1      20.979 -24.826  88.201  1.00  0.00     0.087 A 
ATOM     18  N   UNL     1      20.029 -25.730  88.631  1.00  0.00    -0.361 N 
ATOM     19  C   UNL     1      20.111 -28.118  89.498  1.00  0.00     0.027 A 
ATOM     20  C   UNL     1      26.505 -26.776  86.445  1.00  0.00     0.106 C 
ATOM     21  H   UNL     1      19.034 -25.552  88.666  1.00  0.00     0.166 HD
ENDBRANCH   3   4
BRANCH   2  22
ATOM     22  C   UNL     1      27.819 -25.964  93.016  1.00  0.00     0.116 C 
ATOM     23  C   UNL     1      28.422 -24.612  93.368  1.00  0.00     0.027 C 
ENDBRANCH   2  22
BRANCH   2  24
ATOM     24  C   UNL     1      26.081 -24.933  91.550  1.00  0.00     0.116 C 
ATOM     25  C   UNL     1      24.775 -25.317  92.231  1.00  0.00     0.027 C 
ENDBRANCH   2  24
TORSDOF 3
ENDMDL
MODEL 12
REMARK VINA RESULT:    -7.375      4.007      6.978
REMARK INTER + INTRA:          -9.087
REMARK INTER:                  -8.773
REMARK INTRA:                  -0.314
REMARK UNBOUND:                -0.419
REMARK SMILES CCN(CC)C(=O)[C@@H]1C=C2c3cccc4[nH]cc(c34)C[C@H]2N(C)C1
REMARK SMILES IDX 7 1 3 2 6 3 8 4 24 5 9 6 22 7 10 8 21 9 11 10 20 11 19 12
REMARK SMILES IDX 12 13 18 14 15 15 13 16 17 17 16 18 14 19 23 20 2 22 1 23
REMARK SMILES IDX 4 24 5 25
REMARK H PARENT 16 21
ROOT
ATOM      1  O   UNL     1      25.375 -26.239  92.374  1.00  0.00    -0.274 OA
ATOM      2  N   UNL     1      27.626 -26.588  92.169  1.00  0.00    -0.343 N 
ATOM      3  C   UNL     1      26.319 -26.643  91.681  1.00  0.00     0.230 C 
ENDROOT
BRANCH   3   4
ATOM      4  C   UNL     1      25.987 -27.198  90.284  1.00  0.00     0.116 C 
ATOM      5  C   UNL     1      26.409 -26.232  89.161  1.00  0.00     0.102 C 
ATOM      6  C   UNL     1      24.562 -27.675  90.166  1.00  0.00    -0.007 C 
ATOM      7  N   UNL     1      25.960 -26.625  87.809  1.00  0.00    -0.298 NA
ATOM      8  C   UNL     1      23.867 -27.476  89.032  1.00  0.00    -0.026 C 
ATOM      9  C   UNL     1      24.490 -26.838  87.759  1.00  0.00     0.091 C 
ATOM     10  C   UNL     1      22.410 -27.715  88.966  1.00  0.00    -0.011 A 
ATOM     11  C   UNL     1      23.753 -25.512  87.342  1.00  0.00     0.061 C 
ATOM     12  C   UNL     1      21.744 -26.801  88.132  1.00  0.00     0.010 A 
ATOM     13  C   UNL     1      21.641 -28.669  89.634  1.00  0.00     0.009 A 
ATOM     14  C   UNL     1      22.274 -25.745  87.349  1.00  0.00    -0.020 A 
ATOM     15  C   UNL     1      20.370 -26.836  87.968  1.00  0.00     0.046 A 
ATOM     16  C   UNL     1      20.250 -28.701  89.458  1.00  0.00     0.003 A 
ATOM     17  C   UNL     1      21.211 -25.140  86.719  1.00  0.00     0.087 A 
ATOM     18  N   UNL     1      20.065 -25.809  87.099  1.00  0.00    -0.361 N 
ATOM     19  C   UNL     1      19.583 -27.785  88.623  1.00  0.00     0.027 A 
ATOM     20  C   UNL     1      26.680 -27.812  87.338  1.00  0.00     0.106 C 
ATOM     21  H   UNL     1      19.131 -25.583  86.785  1.00  0.00     0.166 HD
ENDBRANCH   3   4
BRANCH   2  22
ATOM     22  C   UNL     1      27.807 -25.966  93.486  1.00  0.00     0.116 C 
ATOM     23  C   UNL     1      28.565 -24.649  93.403  1.00  0.00     0.027 C 
ENDBRANCH   2  22
BRANCH   2  24
ATOM     24  C   UNL     1      28.851 -26.869  91.406  1.00  0.00     0.116 C 
ATOM     25  C   UNL     1      29.674 -28.003  92.005  1.00  0.00     0.027 C 
ENDBRANCH   2  24
TORSDOF 3
ENDMDL
MODEL 13
REMARK VINA RESULT:    -7.357      2.648      7.840
REMARK INTER + INTRA:          -9.066
REMARK INTER:                  -8.504
REMARK INTRA:                  -0.562
REMARK UNBOUND:                -0.419
REMARK SMILES CCN(CC)C(=O)[C@@H]1C=C2c3cccc4[nH]cc(c34)C[C@H]2N(C)C1
REMARK SMILES IDX 7 1 3 2 6 3 8 4 24 5 9 6 22 7 10 8 21 9 11 10 20 11 19 12
REMARK SMILES IDX 12 13 18 14 15 15 13 16 17 17 16 18 14 19 23 20 2 22 1 23
REMARK SMILES IDX 4 24 5 25
REMARK H PARENT 16 21
ROOT
ATOM      1  O   UNL     1      20.477 -24.060  88.953  1.00  0.00    -0.274 OA
ATOM      2  N   UNL     1      19.901 -24.722  86.841  1.00  0.00    -0.343 N 
ATOM      3  C   UNL     1      20.377 -24.979  88.128  1.00  0.00     0.230 C 
ENDROOT
BRANCH   3   4
ATOM      4  C   UNL     1      20.795 -26.389  88.583  1.00  0.00     0.116 C 
ATOM      5  C   UNL     1      20.408 -26.664  90.049  1.00  0.00     0.102 C 
ATOM      6  C   UNL     1      22.235 -26.704  88.270  1.00  0.00    -0.007 C 
ATOM      7  N   UNL     1      20.936 -27.929  90.599  1.00  0.00    -0.298 NA
ATOM      8  C   UNL     1      22.983 -27.412  89.135  1.00  0.00    -0.026 C 
ATOM      9  C   UNL     1      22.411 -28.021  90.446  1.00  0.00     0.091 C 
ATOM     10  C   UNL     1      24.447 -27.534  88.971  1.00  0.00    -0.011 A 
ATOM     11  C   UNL     1      23.137 -27.458  91.724  1.00  0.00     0.061 C 
ATOM     12  C   UNL     1      25.133 -27.558  90.198  1.00  0.00     0.010 A 
ATOM     13  C   UNL     1      25.203 -27.583  87.800  1.00  0.00     0.009 A 
ATOM     14  C   UNL     1      24.619 -27.519  91.518  1.00  0.00    -0.020 A 
ATOM     15  C   UNL     1      26.514 -27.630  90.257  1.00  0.00     0.046 A 
ATOM     16  C   UNL     1      26.602 -27.662  87.868  1.00  0.00     0.003 A 
ATOM     17  C   UNL     1      25.697 -27.561  92.371  1.00  0.00     0.087 A 
ATOM     18  N   UNL     1      26.838 -27.630  91.597  1.00  0.00    -0.361 N 
ATOM     19  C   UNL     1      27.288 -27.685  89.095  1.00  0.00     0.027 A 
ATOM     20  C   UNL     1      20.271 -29.086  89.993  1.00  0.00     0.106 C 
ATOM     21  H   UNL     1      27.781 -27.676  91.958  1.00  0.00     0.166 HD
ENDBRANCH   3   4
BRANCH   2  22
ATOM     22  C   UNL     1      19.468 -23.347  86.565  1.00  0.00     0.116 C 
ATOM     23  C   UNL     1      17.952 -23.215  86.535  1.00  0.00     0.027 C 
ENDBRANCH   2  22
BRANCH   2  24
ATOM     24  C   UNL     1      19.571 -25.727  85.820  1.00  0.00     0.116 C 
ATOM     25  C   UNL     1      20.743 -26.040  84.898  1.00  0.00     0.027 C 
ENDBRANCH   2  24
TORSDOF 3
ENDMDL
MODEL 14
REMARK VINA RESULT:    -7.354      3.994      5.840
REMARK INTER + INTRA:          -9.063
REMARK INTER:                  -8.617
REMARK INTRA:                  -0.445
REMARK UNBOUND:                -0.419
REMARK SMILES CCN(CC)C(=O)[C@@H]1C=C2c3cccc4[nH]cc(c34)C[C@H]2N(C)C1
REMARK SMILES IDX 7 1 3 2 6 3 8 4 24 5 9 6 22 7 10 8 21 9 11 10 20 11 19 12
REMARK SMILES IDX 12 13 18 14 15 15 13 16 17 17 16 18 14 19 23 20 2 22 1 23
REMARK SMILES IDX 4 24 5 25
REMARK H PARENT 16 21
ROOT
ATOM      1  O   UNL     1      24.430 -25.504  91.970  1.00  0.00    -0.274 OA
ATOM      2  N   UNL     1      26.396 -26.663  91.817  1.00  0.00    -0.343 N 
ATOM      3  C   UNL     1      25.246 -26.105  91.256  1.00  0.00     0.230 C 
ENDROOT
BRANCH   3   4
ATOM      4  C   UNL     1      24.936 -26.202  89.751  1.00  0.00     0.116 C 
ATOM      5  C   UNL     1      25.159 -24.861  89.026  1.00  0.00     0.102 C 
ATOM      6  C   UNL     1      23.593 -26.825  89.468  1.00  0.00    -0.007 C 
ATOM      7  N   UNL     1      24.712 -24.840  87.618  1.00  0.00    -0.298 NA
ATOM      8  C   UNL     1      22.825 -26.366  88.464  1.00  0.00    -0.026 C 
ATOM      9  C   UNL     1      23.288 -25.249  87.488  1.00  0.00     0.091 C 
ATOM     10  C   UNL     1      21.418 -26.792  88.310  1.00  0.00    -0.011 A 
ATOM     11  C   UNL     1      22.345 -23.991  87.541  1.00  0.00     0.061 C 
ATOM     12  C   UNL     1      20.587 -25.765  87.831  1.00  0.00     0.010 A 
ATOM     13  C   UNL     1      20.831 -28.021  88.609  1.00  0.00     0.009 A 
ATOM     14  C   UNL     1      20.918 -24.439  87.457  1.00  0.00    -0.020 A 
ATOM     15  C   UNL     1      19.227 -25.954  87.655  1.00  0.00     0.046 A 
ATOM     16  C   UNL     1      19.452 -28.206  88.422  1.00  0.00     0.003 A 
ATOM     17  C   UNL     1      19.750 -23.829  87.062  1.00  0.00     0.087 A 
ATOM     18  N   UNL     1      18.735 -24.755  87.184  1.00  0.00    -0.361 N 
ATOM     19  C   UNL     1      18.620 -27.178  87.944  1.00  0.00     0.027 A 
ATOM     20  C   UNL     1      25.576 -25.673  86.777  1.00  0.00     0.106 C 
ATOM     21  H   UNL     1      17.764 -24.584  86.958  1.00  0.00     0.166 HD
ENDBRANCH   3   4
BRANCH   2  22
ATOM     22  C   UNL     1      26.603 -26.431  93.252  1.00  0.00     0.116 C 
ATOM     23  C   UNL     1      26.251 -27.652  94.090  1.00  0.00     0.027 C 
ENDBRANCH   2  22
BRANCH   2  24
ATOM     24  C   UNL     1      27.524 -27.251  91.082  1.00  0.00     0.116 C 
ATOM     25  C   UNL     1      28.878 -26.833  91.640  1.00  0.00     0.027 C 
ENDBRANCH   2  24
TORSDOF 3
ENDMDL
MODEL 15
REMARK VINA RESULT:    -7.347      3.511      6.622
REMARK INTER + INTRA:          -9.055
REMARK INTER:                  -8.717
REMARK INTRA:                  -0.338
REMARK UNBOUND:                -0.419
REMARK SMILES CCN(CC)C(=O)[C@@H]1C=C2c3cccc4[nH]cc(c34)C[C@H]2N(C)C1
REMARK SMILES IDX 7 1 3 2 6 3 8 4 24 5 9 6 22 7 10 8 21 9 11 10 20 11 19 12
REMARK SMILES IDX 12 13 18 14 15 15 13 16 17 17 16 18 14 19 23 20 2 22 1 23
REMARK SMILES IDX 4 24 5 25
REMARK H PARENT 16 21
ROOT
ATOM      1  O   UNL     1      24.634 -24.428  88.948  1.00  0.00    -0.274 OA
ATOM      2  N   UNL     1      25.759 -26.414  88.811  1.00  0.00    -0.343 N 
ATOM      3  C   UNL     1      24.623 -25.625  88.626  1.00  0.00     0.230 C 
ENDROOT
BRANCH   3   4
ATOM      4  C   UNL     1      23.321 -26.185  88.025  1.00  0.00     0.116 C 
ATOM      5  C   UNL     1      22.331 -25.068  87.644  1.00  0.00     0.102 C 
ATOM      6  C   UNL     1      22.707 -27.275  88.865  1.00  0.00    -0.007 C 
ATOM      7  N   UNL     1      20.996 -25.543  87.226  1.00  0.00    -0.298 NA
ATOM      8  C   UNL     1      21.372 -27.362  89.001  1.00  0.00    -0.026 C 
ATOM      9  C   UNL     1      20.383 -26.428  88.251  1.00  0.00     0.091 C 
ATOM     10  C   UNL     1      20.755 -28.263  89.997  1.00  0.00    -0.011 A 
ATOM     11  C   UNL     1      19.493 -25.591  89.244  1.00  0.00     0.061 C 
ATOM     12  C   UNL     1      19.586 -27.728  90.566  1.00  0.00     0.010 A 
ATOM     13  C   UNL     1      21.192 -29.507  90.454  1.00  0.00     0.009 A 
ATOM     14  C   UNL     1      18.931 -26.501  90.291  1.00  0.00    -0.020 A 
ATOM     15  C   UNL     1      18.881 -28.403  91.547  1.00  0.00     0.046 A 
ATOM     16  C   UNL     1      20.468 -30.187  91.445  1.00  0.00     0.003 A 
ATOM     17  C   UNL     1      17.833 -26.439  91.117  1.00  0.00     0.087 A 
ATOM     18  N   UNL     1      17.811 -27.595  91.870  1.00  0.00    -0.361 N 
ATOM     19  C   UNL     1      19.299 -29.651  92.014  1.00  0.00     0.027 A 
ATOM     20  C   UNL     1      21.058 -26.213  85.924  1.00  0.00     0.106 C 
ATOM     21  H   UNL     1      17.110 -27.823  92.562  1.00  0.00     0.166 HD
ENDBRANCH   3   4
BRANCH   2  22
ATOM     22  C   UNL     1      26.954 -25.733  89.325  1.00  0.00     0.116 C 
ATOM     23  C   UNL     1      27.165 -25.984  90.811  1.00  0.00     0.027 C 
ENDBRANCH   2  22
BRANCH   2  24
ATOM     24  C   UNL     1      25.949 -27.789  88.327  1.00  0.00     0.116 C 
ATOM     25  C   UNL     1      26.666 -27.852  86.985  1.00  0.00     0.027 C 
ENDBRANCH   2  24
TORSDOF 3
ENDMDL
MODEL 16
REMARK VINA RESULT:    -7.319      4.523      6.639
REMARK INTER + INTRA:          -9.022
REMARK INTER:                  -9.032
REMARK INTRA:                   0.011
REMARK UNBOUND:                -0.419
REMARK SMILES CCN(CC)C(=O)[C@@H]1C=C2c3cccc4[nH]cc(c34)C[C@H]2N(C)C1
REMARK SMILES IDX 7 1 3 2 6 3 8 4 24 5 9 6 22 7 10 8 21 9 11 10 20 11 19 12
REMARK SMILES IDX 12 13 18 14 15 15 13 16 17 17 16 18 14 19 23 20 2 22 1 23
REMARK SMILES IDX 4 24 5 25
REMARK H PARENT 16 21
ROOT
ATOM      1  O   UNL     1      27.071 -25.369  89.975  1.00  0.00    -0.274 OA
ATOM      2  N   UNL     1      25.930 -25.860  88.056  1.00  0.00    -0.343 N 
ATOM      3  C   UNL     1      26.034 -25.793  89.446  1.00  0.00     0.230 C 
ENDROOT
BRANCH   3   4
ATOM      4  C   UNL     1      24.891 -26.234  90.378  1.00  0.00     0.116 C 
ATOM      5  C   UNL     1      24.746 -27.767  90.433  1.00  0.00     0.102 C 
ATOM      6  C   UNL     1      23.596 -25.515  90.101  1.00  0.00    -0.007 C 
ATOM      7  N   UNL     1      23.559 -28.248  91.169  1.00  0.00    -0.298 NA
ATOM      8  C   UNL     1      22.422 -26.166  90.182  1.00  0.00    -0.026 C 
ATOM      9  C   UNL     1      22.306 -27.645  90.644  1.00  0.00     0.091 C 
ATOM     10  C   UNL     1      21.167 -25.560  89.691  1.00  0.00    -0.011 A 
ATOM     11  C   UNL     1      21.673 -28.563  89.534  1.00  0.00     0.061 C 
ATOM     12  C   UNL     1      20.294 -26.502  89.119  1.00  0.00     0.010 A 
ATOM     13  C   UNL     1      20.776 -24.221  89.686  1.00  0.00     0.009 A 
ATOM     14  C   UNL     1      20.442 -27.905  88.991  1.00  0.00    -0.020 A 
ATOM     15  C   UNL     1      19.082 -26.127  88.567  1.00  0.00     0.046 A 
ATOM     16  C   UNL     1      19.542 -23.850  89.130  1.00  0.00     0.003 A 
ATOM     17  C   UNL     1      19.316 -28.372  88.354  1.00  0.00     0.087 A 
ATOM     18  N   UNL     1      18.500 -27.288  88.104  1.00  0.00    -0.361 N 
ATOM     19  C   UNL     1      18.670 -24.792  88.557  1.00  0.00     0.027 A 
ATOM     20  C   UNL     1      23.697 -28.005  92.608  1.00  0.00     0.106 C 
ATOM     21  H   UNL     1      17.599 -27.334  87.647  1.00  0.00     0.166 HD
ENDBRANCH   3   4
BRANCH   2  22
ATOM     22  C   UNL     1      27.066 -25.338  87.288  1.00  0.00     0.116 C 
ATOM     23  C   UNL     1      27.045 -25.803  85.838  1.00  0.00     0.027 C 
ENDBRANCH   2  22
BRANCH   2  24
ATOM     24  C   UNL     1      24.716 -26.179  87.290  1.00  0.00     0.116 C 
ATOM     25  C   UNL     1      23.946 -24.938  86.858  1.00  0.00     0.027 C 
ENDBRANCH   2  24
TORSDOF 3
ENDMDL
MODEL 17
REMARK VINA RESULT:    -7.267      4.438      6.937
REMARK INTER + INTRA:          -8.961
REMARK INTER:                  -8.581
REMARK INTRA:                  -0.381
REMARK UNBOUND:                -0.419
REMARK SMILES CCN(CC)C(=O)[C@@H]1C=C2c3cccc4[nH]cc(c34)C[C@H]2N(C)C1
REMARK SMILES IDX 7 1 3 2 6 3 8 4 24 5 9 6 22 7 10 8 21 9 11 10 20 11 19 12
REMARK SMILES IDX 12 13 18 14 15 15 13 16 17 17 16 18 14 19 23 20 2 22 1 23
REMARK SMILES IDX 4 24 5 25
REMARK H PARENT 16 21
ROOT
ATOM      1  O   UNL     1      18.111 -26.291  90.739  1.00  0.00    -0.274 OA
ATOM      2  N   UNL     1      17.100 -28.277  91.251  1.00  0.00    -0.343 N 
ATOM      3  C   UNL     1      18.193 -27.525  90.817  1.00  0.00     0.230 C 
ENDROOT
BRANCH   3   4
ATOM      4  C   UNL     1      19.531 -28.174  90.421  1.00  0.00     0.116 C 
ATOM      5  C   UNL     1      20.446 -28.407  91.638  1.00  0.00     0.102 C 
ATOM      6  C   UNL     1      20.214 -27.462  89.281  1.00  0.00    -0.007 C 
ATOM      7  N   UNL     1      21.811 -28.863  91.306  1.00  0.00    -0.298 NA
ATOM      8  C   UNL     1      21.551 -27.322  89.267  1.00  0.00    -0.026 C 
ATOM      9  C   UNL     1      22.479 -27.944  90.348  1.00  0.00     0.091 C 
ATOM     10  C   UNL     1      22.225 -26.433  88.297  1.00  0.00    -0.011 A 
ATOM     11  C   UNL     1      23.306 -26.849  91.117  1.00  0.00     0.061 C 
ATOM     12  C   UNL     1      23.353 -25.791  88.836  1.00  0.00     0.010 A 
ATOM     13  C   UNL     1      21.871 -26.133  86.981  1.00  0.00     0.009 A 
ATOM     14  C   UNL     1      23.925 -25.911  90.128  1.00  0.00    -0.020 A 
ATOM     15  C   UNL     1      24.099 -24.889  88.098  1.00  0.00     0.046 A 
ATOM     16  C   UNL     1      22.635 -25.221  86.237  1.00  0.00     0.003 A 
ATOM     17  C   UNL     1      25.014 -25.071  90.164  1.00  0.00     0.087 A 
ATOM     18  N   UNL     1      25.110 -24.460  88.930  1.00  0.00    -0.361 N 
ATOM     19  C   UNL     1      23.763 -24.579  86.778  1.00  0.00     0.027 A 
ATOM     20  C   UNL     1      21.798 -30.237  90.794  1.00  0.00     0.106 C 
ATOM     21  H   UNL     1      25.823 -23.792  88.669  1.00  0.00     0.166 HD
ENDBRANCH   3   4
BRANCH   2  22
ATOM     22  C   UNL     1      15.910 -27.524  91.668  1.00  0.00     0.116 C 
ATOM     23  C   UNL     1      15.037 -28.314  92.632  1.00  0.00     0.027 C 
ENDBRANCH   2  22
BRANCH   2  24
ATOM     24  C   UNL     1      17.099 -29.716  91.552  1.00  0.00     0.116 C 
ATOM     25  C   UNL     1      16.626 -30.566  90.380  1.00  0.00     0.027 C 
ENDBRANCH   2  24
TORSDOF 3
ENDMDL
MODEL 18
REMARK VINA RESULT:    -7.222      4.832      7.558
REMARK INTER + INTRA:          -8.908
REMARK INTER:                  -8.681
REMARK INTRA:                  -0.228
REMARK UNBOUND:                -0.419
REMARK SMILES CCN(CC)C(=O)[C@@H]1C=C2c3cccc4[nH]cc(c34)C[C@H]2N(C)C1
REMARK SMILES IDX 7 1 3 2 6 3 8 4 24 5 9 6 22 7 10 8 21 9 11 10 20 11 19 12
REMARK SMILES IDX 12 13 18 14 15 15 13 16 17 17 16 18 14 19 23 20 2 22 1 23
REMARK SMILES IDX 4 24 5 25
REMARK H PARENT 16 21
ROOT
ATOM      1  O   UNL     1      20.777 -30.605  91.084  1.00  0.00    -0.274 OA
ATOM      2  N   UNL     1      20.421 -28.538  90.171  1.00  0.00    -0.343 N 
ATOM      3  C   UNL     1      21.213 -29.470  90.844  1.00  0.00     0.230 C 
ENDROOT
BRANCH   3   4
ATOM      4  C   UNL     1      22.643 -29.146  91.314  1.00  0.00     0.116 C 
ATOM      5  C   UNL     1      22.660 -28.082  92.427  1.00  0.00     0.102 C 
ATOM      6  C   UNL     1      23.581 -28.842  90.175  1.00  0.00    -0.007 C 
ATOM      7  N   UNL     1      24.006 -27.599  92.799  1.00  0.00    -0.298 NA
ATOM      8  C   UNL     1      24.516 -27.883  90.297  1.00  0.00    -0.026 C 
ATOM      9  C   UNL     1      24.755 -27.098  91.617  1.00  0.00     0.091 C 
ATOM     10  C   UNL     1      25.287 -27.402  89.131  1.00  0.00    -0.011 A 
ATOM     11  C   UNL     1      24.529 -25.552  91.434  1.00  0.00     0.061 C 
ATOM     12  C   UNL     1      25.570 -26.027  89.194  1.00  0.00     0.010 A 
ATOM     13  C   UNL     1      25.714 -28.105  88.004  1.00  0.00     0.009 A 
ATOM     14  C   UNL     1      25.255 -25.088  90.209  1.00  0.00    -0.020 A 
ATOM     15  C   UNL     1      26.251 -25.378  88.179  1.00  0.00     0.046 A 
ATOM     16  C   UNL     1      26.408 -27.441  86.982  1.00  0.00     0.003 A 
ATOM     17  C   UNL     1      25.744 -23.871  89.795  1.00  0.00     0.087 A 
ATOM     18  N   UNL     1      26.345 -24.058  88.567  1.00  0.00    -0.361 N 
ATOM     19  C   UNL     1      26.690 -26.064  87.045  1.00  0.00     0.027 A 
ATOM     20  C   UNL     1      24.765 -28.640  93.500  1.00  0.00     0.106 C 
ATOM     21  H   UNL     1      26.796 -23.333  88.026  1.00  0.00     0.166 HD
ENDBRANCH   3   4
BRANCH   2  22
ATOM     22  C   UNL     1      19.106 -29.005  89.715  1.00  0.00     0.116 C 
ATOM     23  C   UNL     1      18.033 -28.835  90.781  1.00  0.00     0.027 C 
ENDBRANCH   2  22
BRANCH   2  24
ATOM     24  C   UNL     1      20.857 -27.226  89.672  1.00  0.00     0.116 C 
ATOM     25  C   UNL     1      20.963 -27.176  88.153  1.00  0.00     0.027 C 
ENDBRANCH   2  24
TORSDOF 3
ENDMDL
MODEL 19
REMARK VINA RESULT:    -7.200      3.641      6.176
REMARK INTER + INTRA:          -8.882
REMARK INTER:                  -8.512
REMARK INTRA:                  -0.370
REMARK UNBOUND:                -0.419
REMARK SMILES CCN(CC)C(=O)[C@@H]1C=C2c3cccc4[nH]cc(c34)C[C@H]2N(C)C1
REMARK SMILES IDX 7 1 3 2 6 3 8 4 24 5 9 6 22 7 10 8 21 9 11 10 20 11 19 12
REMARK SMILES IDX 12 13 18 14 15 15 13 16 17 17 16 18 14 19 23 20 2 22 1 23
REMARK SMILES IDX 4 24 5 25
REMARK H PARENT 16 21
ROOT
ATOM      1  O   UNL     1      18.751 -28.710  88.171  1.00  0.00    -0.274 OA
ATOM      2  N   UNL     1      18.523 -28.486  90.435  1.00  0.00    -0.343 N 
ATOM      3  C   UNL     1      18.835 -27.983  89.171  1.00  0.00     0.230 C 
ENDROOT
BRANCH   3   4
ATOM      4  C   UNL     1      19.293 -26.529  88.955  1.00  0.00     0.116 C 
ATOM      5  C   UNL     1      19.210 -26.110  87.475  1.00  0.00     0.102 C 
ATOM      6  C   UNL     1      20.625 -26.232  89.592  1.00  0.00    -0.007 C 
ATOM      7  N   UNL     1      19.799 -24.788  87.175  1.00  0.00    -0.298 NA
ATOM      8  C   UNL     1      21.513 -25.430  88.978  1.00  0.00    -0.026 C 
ATOM      9  C   UNL     1      21.207 -24.696  87.643  1.00  0.00     0.091 C 
ATOM     10  C   UNL     1      22.906 -25.309  89.456  1.00  0.00    -0.011 A 
ATOM     11  C   UNL     1      22.200 -25.115  86.497  1.00  0.00     0.061 C 
ATOM     12  C   UNL     1      23.831 -25.151  88.410  1.00  0.00     0.010 A 
ATOM     13  C   UNL     1      23.400 -25.372  90.760  1.00  0.00     0.009 A 
ATOM     14  C   UNL     1      23.604 -25.059  87.014  1.00  0.00    -0.020 A 
ATOM     15  C   UNL     1      25.191 -25.057  88.650  1.00  0.00     0.046 A 
ATOM     16  C   UNL     1      24.780 -25.271  90.995  1.00  0.00     0.003 A 
ATOM     17  C   UNL     1      24.834 -24.918  86.415  1.00  0.00     0.087 A 
ATOM     18  N   UNL     1      25.786 -24.916  87.414  1.00  0.00    -0.361 N 
ATOM     19  C   UNL     1      25.705 -25.114  89.947  1.00  0.00     0.027 A 
ATOM     20  C   UNL     1      18.985 -23.707  87.739  1.00  0.00     0.106 C 
ATOM     21  H   UNL     1      26.782 -24.822  87.266  1.00  0.00     0.166 HD
ENDBRANCH   3   4
BRANCH   2  22
ATOM     22  C   UNL     1      18.029 -29.868  90.487  1.00  0.00     0.116 C 
ATOM     23  C   UNL     1      16.525 -29.934  90.712  1.00  0.00     0.027 C 
ENDBRANCH   2  22
BRANCH   2  24
ATOM     24  C   UNL     1      18.414 -27.708  91.677  1.00  0.00     0.116 C 
ATOM     25  C   UNL     1      19.085 -28.388  92.863  1.00  0.00     0.027 C 
ENDBRANCH   2  24
TORSDOF 3
ENDMDL
MODEL 20
REMARK VINA RESULT:    -7.186      5.334      7.148
REMARK INTER + INTRA:          -8.865
REMARK INTER:                  -8.433
REMARK INTRA:                  -0.432
REMARK UNBOUND:                -0.419
REMARK SMILES CCN(CC)C(=O)[C@@H]1C=C2c3cccc4[nH]cc(c34)C[C@H]2N(C)C1
REMARK SMILES IDX 7 1 3 2 6 3 8 4 24 5 9 6 22 7 10 8 21 9 11 10 20 11 19 12
REMARK SMILES IDX 12 13 18 14 15 15 13 16 17 17 16 18 14 19 23 20 2 22 1 23
REMARK SMILES IDX 4 24 5 25
REMARK H PARENT 16 21
ROOT
ATOM      1  O   UNL     1      25.272 -26.206  93.214  1.00  0.00    -0.274 OA
ATOM      2  N   UNL     1      27.434 -26.551  92.554  1.00  0.00    -0.343 N 
ATOM      3  C   UNL     1      26.092 -26.276  92.287  1.00  0.00     0.230 C 
ENDROOT
BRANCH   3   4
ATOM      4  C   UNL     1      25.567 -26.051  90.858  1.00  0.00     0.116 C 
ATOM      5  C   UNL     1      25.459 -24.554  90.509  1.00  0.00     0.102 C 
ATOM      6  C   UNL     1      24.312 -26.831  90.563  1.00  0.00    -0.007 C 
ATOM      7  N   UNL     1      24.798 -24.267  89.220  1.00  0.00    -0.298 NA
ATOM      8  C   UNL     1      23.333 -26.292  89.815  1.00  0.00    -0.026 C 
ATOM      9  C   UNL     1      23.454 -24.898  89.140  1.00  0.00     0.091 C 
ATOM     10  C   UNL     1      22.004 -26.930  89.706  1.00  0.00    -0.011 A 
ATOM     11  C   UNL     1      22.345 -23.900  89.640  1.00  0.00     0.061 C 
ATOM     12  C   UNL     1      20.956 -25.997  89.623  1.00  0.00     0.010 A 
ATOM     13  C   UNL     1      21.672 -28.285  89.717  1.00  0.00     0.009 A 
ATOM     14  C   UNL     1      21.012 -24.581  89.594  1.00  0.00    -0.020 A 
ATOM     15  C   UNL     1      19.633 -26.395  89.552  1.00  0.00     0.046 A 
ATOM     16  C   UNL     1      20.328 -28.680  89.640  1.00  0.00     0.003 A 
ATOM     17  C   UNL     1      19.715 -24.129  89.513  1.00  0.00     0.087 A 
ATOM     18  N   UNL     1      18.890 -25.235  89.486  1.00  0.00    -0.361 N 
ATOM     19  C   UNL     1      19.279 -27.746  89.557  1.00  0.00     0.027 A 
ATOM     20  C   UNL     1      25.640 -24.679  88.092  1.00  0.00     0.106 C 
ATOM     21  H   UNL     1      17.881 -25.204  89.425  1.00  0.00     0.166 HD
ENDBRANCH   3   4
BRANCH   2  22
ATOM     22  C   UNL     1      27.810 -26.670  93.968  1.00  0.00     0.116 C 
ATOM     23  C   UNL     1      28.927 -25.708  94.350  1.00  0.00     0.027 C 
ENDBRANCH   2  22
BRANCH   2  24
ATOM     24  C   UNL     1      28.540 -26.499  91.587  1.00  0.00     0.116 C 
ATOM     25  C   UNL     1      29.285 -27.822  91.467  1.00  0.00     0.027 C 
ENDBRANCH   2  24
TORSDOF 3
ENDMDL
