MODEL 1
REMARK VINA RESULT:    -9.226      0.000      0.000
REMARK INTER + INTRA:         -11.360
REMARK INTER:                 -10.845
REMARK INTRA:                  -0.515
REMARK UNBOUND:                -0.515
REMARK SMILES CCN(CC)C(=O)[C@@H]1C=C2c3cccc4[nH]cc(c34)C[C@H]2N(C)C1
REMARK SMILES IDX 7 1 3 2 6 3 8 4 24 5 9 6 22 7 10 8 21 9 11 10 20 11 19 12
REMARK SMILES IDX 12 13 18 14 15 15 13 16 17 17 16 18 14 19 23 20 2 22 1 23
REMARK SMILES IDX 4 24 5 25
REMARK H PARENT 16 21
ROOT
ATOM      1  O   UNL     1     -28.956 -14.622 146.355  1.00  0.00    -0.274 OA
ATOM      2  N   UNL     1     -27.237 -15.860 147.215  1.00  0.00    -0.343 N 
ATOM      3  C   UNL     1     -27.736 -14.757 146.521  1.00  0.00     0.230 C 
ENDROOT
BRANCH   3   4
ATOM      4  C   UNL     1     -26.817 -13.669 145.936  1.00  0.00     0.116 C 
ATOM      5  C   UNL     1     -27.078 -12.288 146.567  1.00  0.00     0.102 C 
ATOM      6  C   UNL     1     -26.812 -13.652 144.429  1.00  0.00    -0.007 C 
ATOM      7  N   UNL     1     -26.354 -11.171 145.927  1.00  0.00    -0.298 NA
ATOM      8  C   UNL     1     -26.762 -12.487 143.758  1.00  0.00    -0.026 C 
ATOM      9  C   UNL     1     -26.618 -11.111 144.466  1.00  0.00     0.091 C 
ATOM     10  C   UNL     1     -26.994 -12.424 142.300  1.00  0.00    -0.011 A 
ATOM     11  C   UNL     1     -27.835 -10.161 144.162  1.00  0.00     0.061 C 
ATOM     12  C   UNL     1     -27.670 -11.257 141.905  1.00  0.00     0.010 A 
ATOM     13  C   UNL     1     -26.675 -13.359 141.315  1.00  0.00     0.009 A 
ATOM     14  C   UNL     1     -28.107 -10.161 142.690  1.00  0.00    -0.020 A 
ATOM     15  C   UNL     1     -28.013 -11.028 140.584  1.00  0.00     0.046 A 
ATOM     16  C   UNL     1     -27.022 -13.117 139.977  1.00  0.00     0.003 A 
ATOM     17  C   UNL     1     -28.722  -9.275 141.835  1.00  0.00     0.087 A 
ATOM     18  N   UNL     1     -28.657  -9.809 140.564  1.00  0.00    -0.361 N 
ATOM     19  C   UNL     1     -27.699 -11.949 139.582  1.00  0.00     0.027 A 
ATOM     20  C   UNL     1     -24.915 -11.250 146.198  1.00  0.00     0.106 C 
ATOM     21  H   UNL     1     -29.027  -9.370 139.732  1.00  0.00     0.166 HD
ENDBRANCH   3   4
BRANCH   2  22
ATOM     22  C   UNL     1     -28.229 -16.780 147.783  1.00  0.00     0.116 C 
ATOM     23  C   UNL     1     -28.490 -16.508 149.257  1.00  0.00     0.027 C 
ENDBRANCH   2  22
BRANCH   2  24
ATOM     24  C   UNL     1     -25.842 -16.066 147.632  1.00  0.00     0.116 C 
ATOM     25  C   UNL     1     -25.055 -16.934 146.659  1.00  0.00     0.027 C 
ENDBRANCH   2  24
TORSDOF 3
ENDMDL
MODEL 2
REMARK VINA RESULT:    -8.940      2.065      6.967
REMARK INTER + INTRA:         -11.023
REMARK INTER:                 -10.637
REMARK INTRA:                  -0.387
REMARK UNBOUND:                -0.515
REMARK SMILES CCN(CC)C(=O)[C@@H]1C=C2c3cccc4[nH]cc(c34)C[C@H]2N(C)C1
REMARK SMILES IDX 7 1 3 2 6 3 8 4 24 5 9 6 22 7 10 8 21 9 11 10 20 11 19 12
REMARK SMILES IDX 12 13 18 14 15 15 13 16 17 17 16 18 14 19 23 20 2 22 1 23
REMARK SMILES IDX 4 24 5 25
REMARK H PARENT 16 21
ROOT
ATOM      1  O   UNL     1     -27.217 -11.876 141.662  1.00  0.00    -0.274 OA
ATOM      2  N   UNL     1     -28.321 -10.199 142.758  1.00  0.00    -0.343 N 
ATOM      3  C   UNL     1     -27.397 -11.244 142.713  1.00  0.00     0.230 C 
ENDROOT
BRANCH   3   4
ATOM      4  C   UNL     1     -26.569 -11.662 143.942  1.00  0.00     0.116 C 
ATOM      5  C   UNL     1     -25.383 -12.570 143.561  1.00  0.00     0.102 C 
ATOM      6  C   UNL     1     -27.414 -12.213 145.061  1.00  0.00    -0.007 C 
ATOM      7  N   UNL     1     -24.654 -13.147 144.708  1.00  0.00    -0.298 NA
ATOM      8  C   UNL     1     -26.977 -13.247 145.802  1.00  0.00    -0.026 C 
ATOM      9  C   UNL     1     -25.567 -13.876 145.627  1.00  0.00     0.091 C 
ATOM     10  C   UNL     1     -27.871 -13.957 146.741  1.00  0.00    -0.011 A 
ATOM     11  C   UNL     1     -25.645 -15.399 145.237  1.00  0.00     0.061 C 
ATOM     12  C   UNL     1     -27.606 -15.335 146.809  1.00  0.00     0.010 A 
ATOM     13  C   UNL     1     -28.927 -13.457 147.503  1.00  0.00     0.009 A 
ATOM     14  C   UNL     1     -26.608 -16.094 146.148  1.00  0.00    -0.020 A 
ATOM     15  C   UNL     1     -28.359 -16.181 147.604  1.00  0.00     0.046 A 
ATOM     16  C   UNL     1     -29.683 -14.321 148.311  1.00  0.00     0.003 A 
ATOM     17  C   UNL     1     -26.770 -17.402 146.544  1.00  0.00     0.087 A 
ATOM     18  N   UNL     1     -27.831 -17.442 147.425  1.00  0.00    -0.361 N 
ATOM     19  C   UNL     1     -29.418 -15.700 148.378  1.00  0.00     0.027 A 
ATOM     20  C   UNL     1     -23.899 -12.116 145.427  1.00  0.00     0.106 C 
ATOM     21  H   UNL     1     -28.174 -18.277 147.881  1.00  0.00     0.166 HD
ENDBRANCH   3   4
BRANCH   2  22
ATOM     22  C   UNL     1     -28.986  -9.859 141.494  1.00  0.00     0.116 C 
ATOM     23  C   UNL     1     -28.988  -8.361 141.228  1.00  0.00     0.027 C 
ENDBRANCH   2  22
BRANCH   2  24
ATOM     24  C   UNL     1     -28.518  -9.261 143.872  1.00  0.00     0.116 C 
ATOM     25  C   UNL     1     -29.792  -9.538 144.660  1.00  0.00     0.027 C 
ENDBRANCH   2  24
TORSDOF 3
ENDMDL
MODEL 3
REMARK VINA RESULT:    -8.791      1.338      1.819
REMARK INTER + INTRA:         -10.848
REMARK INTER:                 -10.820
REMARK INTRA:                  -0.027
REMARK UNBOUND:                -0.515
REMARK SMILES CCN(CC)C(=O)[C@@H]1C=C2c3cccc4[nH]cc(c34)C[C@H]2N(C)C1
REMARK SMILES IDX 7 1 3 2 6 3 8 4 24 5 9 6 22 7 10 8 21 9 11 10 20 11 19 12
REMARK SMILES IDX 12 13 18 14 15 15 13 16 17 17 16 18 14 19 23 20 2 22 1 23
REMARK SMILES IDX 4 24 5 25
REMARK H PARENT 16 21
ROOT
ATOM      1  O   UNL     1     -25.635 -16.620 146.162  1.00  0.00    -0.274 OA
ATOM      2  N   UNL     1     -27.388 -15.330 146.866  1.00  0.00    -0.343 N 
ATOM      3  C   UNL     1     -26.167 -15.502 146.211  1.00  0.00     0.230 C 
ENDROOT
BRANCH   3   4
ATOM      4  C   UNL     1     -25.430 -14.336 145.527  1.00  0.00     0.116 C 
ATOM      5  C   UNL     1     -25.404 -13.071 146.406  1.00  0.00     0.102 C 
ATOM      6  C   UNL     1     -25.908 -14.084 144.120  1.00  0.00    -0.007 C 
ATOM      7  N   UNL     1     -24.867 -11.868 145.739  1.00  0.00    -0.298 NA
ATOM      8  C   UNL     1     -26.016 -12.828 143.651  1.00  0.00    -0.026 C 
ATOM      9  C   UNL     1     -25.583 -11.579 144.468  1.00  0.00     0.091 C 
ATOM     10  C   UNL     1     -26.699 -12.537 142.373  1.00  0.00    -0.011 A 
ATOM     11  C   UNL     1     -26.783 -10.593 144.721  1.00  0.00     0.061 C 
ATOM     12  C   UNL     1     -27.406 -11.322 142.396  1.00  0.00     0.010 A 
ATOM     13  C   UNL     1     -26.761 -13.306 141.210  1.00  0.00     0.009 A 
ATOM     14  C   UNL     1     -27.512 -10.363 143.433  1.00  0.00    -0.020 A 
ATOM     15  C   UNL     1     -28.142 -10.889 141.307  1.00  0.00     0.046 A 
ATOM     16  C   UNL     1     -27.506 -12.857 140.109  1.00  0.00     0.003 A 
ATOM     17  C   UNL     1     -28.323  -9.354 142.966  1.00  0.00     0.087 A 
ATOM     18  N   UNL     1     -28.696  -9.682 141.679  1.00  0.00    -0.361 N 
ATOM     19  C   UNL     1     -28.214 -11.642 140.133  1.00  0.00     0.027 A 
ATOM     20  C   UNL     1     -23.424 -11.988 145.513  1.00  0.00     0.106 C 
ATOM     21  H   UNL     1     -29.290  -9.118 141.086  1.00  0.00     0.166 HD
ENDBRANCH   3   4
BRANCH   2  22
ATOM     22  C   UNL     1     -28.015 -16.541 147.409  1.00  0.00     0.116 C 
ATOM     23  C   UNL     1     -27.996 -16.567 148.931  1.00  0.00     0.027 C 
ENDBRANCH   2  22
BRANCH   2  24
ATOM     24  C   UNL     1     -28.212 -14.114 146.861  1.00  0.00     0.116 C 
ATOM     25  C   UNL     1     -29.691 -14.401 146.637  1.00  0.00     0.027 C 
ENDBRANCH   2  24
TORSDOF 3
ENDMDL
MODEL 4
REMARK VINA RESULT:    -8.698      2.292      7.235
REMARK INTER + INTRA:         -10.738
REMARK INTER:                 -10.381
REMARK INTRA:                  -0.357
REMARK UNBOUND:                -0.515
REMARK SMILES CCN(CC)C(=O)[C@@H]1C=C2c3cccc4[nH]cc(c34)C[C@H]2N(C)C1
REMARK SMILES IDX 7 1 3 2 6 3 8 4 24 5 9 6 22 7 10 8 21 9 11 10 20 11 19 12
REMARK SMILES IDX 12 13 18 14 15 15 13 16 17 17 16 18 14 19 23 20 2 22 1 23
REMARK SMILES IDX 4 24 5 25
REMARK H PARENT 16 21
ROOT
ATOM      1  O   UNL     1     -30.115 -10.647 142.560  1.00  0.00    -0.274 OA
ATOM      2  N   UNL     1     -29.492  -8.447 142.554  1.00  0.00    -0.343 N 
ATOM      3  C   UNL     1     -29.324  -9.775 142.948  1.00  0.00     0.230 C 
ENDROOT
BRANCH   3   4
ATOM      4  C   UNL     1     -28.172 -10.221 143.866  1.00  0.00     0.116 C 
ATOM      5  C   UNL     1     -27.030 -10.892 143.080  1.00  0.00     0.102 C 
ATOM      6  C   UNL     1     -28.643 -11.024 145.051  1.00  0.00    -0.007 C 
ATOM      7  N   UNL     1     -25.977 -11.498 143.919  1.00  0.00    -0.298 NA
ATOM      8  C   UNL     1     -27.923 -12.069 145.497  1.00  0.00    -0.026 C 
ATOM      9  C   UNL     1     -26.543 -12.462 144.900  1.00  0.00     0.091 C 
ATOM     10  C   UNL     1     -28.468 -13.013 146.495  1.00  0.00    -0.011 A 
ATOM     11  C   UNL     1     -26.551 -13.918 144.303  1.00  0.00     0.061 C 
ATOM     12  C   UNL     1     -28.046 -14.337 146.281  1.00  0.00     0.010 A 
ATOM     13  C   UNL     1     -29.345 -12.771 147.552  1.00  0.00     0.009 A 
ATOM     14  C   UNL     1     -27.171 -14.854 145.293  1.00  0.00    -0.020 A 
ATOM     15  C   UNL     1     -28.477 -15.376 147.087  1.00  0.00     0.046 A 
ATOM     16  C   UNL     1     -29.774 -13.830 148.368  1.00  0.00     0.003 A 
ATOM     17  C   UNL     1     -27.085 -16.211 145.504  1.00  0.00     0.087 A 
ATOM     18  N   UNL     1     -27.877 -16.515 146.593  1.00  0.00    -0.361 N 
ATOM     19  C   UNL     1     -29.352 -15.154 148.153  1.00  0.00     0.027 A 
ATOM     20  C   UNL     1     -25.181 -10.469 144.594  1.00  0.00     0.106 C 
ATOM     21  H   UNL     1     -28.001 -17.441 146.979  1.00  0.00     0.166 HD
ENDBRANCH   3   4
BRANCH   2  22
ATOM     22  C   UNL     1     -30.589  -8.175 141.616  1.00  0.00     0.116 C 
ATOM     23  C   UNL     1     -30.110  -8.106 140.173  1.00  0.00     0.027 C 
ENDBRANCH   2  22
BRANCH   2  24
ATOM     24  C   UNL     1     -28.550  -7.344 142.792  1.00  0.00     0.116 C 
ATOM     25  C   UNL     1     -29.225  -5.978 142.795  1.00  0.00     0.027 C 
ENDBRANCH   2  24
TORSDOF 3
ENDMDL
MODEL 5
REMARK VINA RESULT:    -8.684      0.899      0.966
REMARK INTER + INTRA:         -10.722
REMARK INTER:                 -10.493
REMARK INTRA:                  -0.229
REMARK UNBOUND:                -0.515
REMARK SMILES CCN(CC)C(=O)[C@@H]1C=C2c3cccc4[nH]cc(c34)C[C@H]2N(C)C1
REMARK SMILES IDX 7 1 3 2 6 3 8 4 24 5 9 6 22 7 10 8 21 9 11 10 20 11 19 12
REMARK SMILES IDX 12 13 18 14 15 15 13 16 17 17 16 18 14 19 23 20 2 22 1 23
REMARK SMILES IDX 4 24 5 25
REMARK H PARENT 16 21
ROOT
ATOM      1  O   UNL     1     -28.047 -14.965 145.904  1.00  0.00    -0.274 OA
ATOM      2  N   UNL     1     -26.153 -16.159 146.366  1.00  0.00    -0.343 N 
ATOM      3  C   UNL     1     -26.811 -15.039 145.857  1.00  0.00     0.230 C 
ENDROOT
BRANCH   3   4
ATOM      4  C   UNL     1     -26.054 -13.857 145.225  1.00  0.00     0.116 C 
ATOM      5  C   UNL     1     -26.210 -12.563 146.046  1.00  0.00     0.102 C 
ATOM      6  C   UNL     1     -26.358 -13.682 143.759  1.00  0.00    -0.007 C 
ATOM      7  N   UNL     1     -25.655 -11.354 145.402  1.00  0.00    -0.298 NA
ATOM      8  C   UNL     1     -26.471 -12.452 143.227  1.00  0.00    -0.026 C 
ATOM      9  C   UNL     1     -26.214 -11.152 144.040  1.00  0.00     0.091 C 
ATOM     10  C   UNL     1     -26.997 -12.245 141.862  1.00  0.00    -0.011 A 
ATOM     11  C   UNL     1     -27.487 -10.229 144.095  1.00  0.00     0.061 C 
ATOM     12  C   UNL     1     -27.764 -11.074 141.743  1.00  0.00     0.010 A 
ATOM     13  C   UNL     1     -26.867 -13.057 140.734  1.00  0.00     0.009 A 
ATOM     14  C   UNL     1     -28.054 -10.086 142.717  1.00  0.00    -0.020 A 
ATOM     15  C   UNL     1     -28.375 -10.722 140.552  1.00  0.00     0.046 A 
ATOM     16  C   UNL     1     -27.486 -12.691 139.529  1.00  0.00     0.003 A 
ATOM     17  C   UNL     1     -28.849  -9.143 142.108  1.00  0.00     0.087 A 
ATOM     18  N   UNL     1     -29.035  -9.537 140.799  1.00  0.00    -0.361 N 
ATOM     19  C   UNL     1     -28.254 -11.519 139.411  1.00  0.00     0.027 A 
ATOM     20  C   UNL     1     -24.190 -11.399 145.368  1.00  0.00     0.106 C 
ATOM     21  H   UNL     1     -29.576  -9.030 140.112  1.00  0.00     0.166 HD
ENDBRANCH   3   4
BRANCH   2  22
ATOM     22  C   UNL     1     -26.993 -17.178 147.008  1.00  0.00     0.116 C 
ATOM     23  C   UNL     1     -27.523 -16.719 148.359  1.00  0.00     0.027 C 
ENDBRANCH   2  22
BRANCH   2  24
ATOM     24  C   UNL     1     -24.700 -16.312 146.532  1.00  0.00     0.116 C 
ATOM     25  C   UNL     1     -24.011 -16.832 145.277  1.00  0.00     0.027 C 
ENDBRANCH   2  24
TORSDOF 3
ENDMDL
MODEL 6
REMARK VINA RESULT:    -8.648      2.824      8.238
REMARK INTER + INTRA:         -10.679
REMARK INTER:                 -10.213
REMARK INTRA:                  -0.467
REMARK UNBOUND:                -0.515
REMARK SMILES CCN(CC)C(=O)[C@@H]1C=C2c3cccc4[nH]cc(c34)C[C@H]2N(C)C1
REMARK SMILES IDX 7 1 3 2 6 3 8 4 24 5 9 6 22 7 10 8 21 9 11 10 20 11 19 12
REMARK SMILES IDX 12 13 18 14 15 15 13 16 17 17 16 18 14 19 23 20 2 22 1 23
REMARK SMILES IDX 4 24 5 25
REMARK H PARENT 16 21
ROOT
ATOM      1  O   UNL     1     -27.347 -12.105 146.927  1.00  0.00    -0.274 OA
ATOM      2  N   UNL     1     -25.591 -12.042 145.464  1.00  0.00    -0.343 N 
ATOM      3  C   UNL     1     -26.544 -12.728 146.218  1.00  0.00     0.230 C 
ENDROOT
BRANCH   3   4
ATOM      4  C   UNL     1     -26.649 -14.264 146.209  1.00  0.00     0.116 C 
ATOM      5  C   UNL     1     -28.083 -14.749 146.494  1.00  0.00     0.102 C 
ATOM      6  C   UNL     1     -25.606 -14.928 147.070  1.00  0.00    -0.007 C 
ATOM      7  N   UNL     1     -28.216 -16.209 146.674  1.00  0.00    -0.298 NA
ATOM      8  C   UNL     1     -25.910 -16.022 147.792  1.00  0.00    -0.026 C 
ATOM      9  C   UNL     1     -27.298 -16.718 147.726  1.00  0.00     0.091 C 
ATOM     10  C   UNL     1     -24.988 -16.552 148.818  1.00  0.00    -0.011 A 
ATOM     11  C   UNL     1     -28.016 -16.737 149.126  1.00  0.00     0.061 C 
ATOM     12  C   UNL     1     -25.660 -17.085 149.932  1.00  0.00     0.010 A 
ATOM     13  C   UNL     1     -23.593 -16.551 148.836  1.00  0.00     0.009 A 
ATOM     14  C   UNL     1     -27.051 -17.207 150.170  1.00  0.00    -0.020 A 
ATOM     15  C   UNL     1     -24.972 -17.597 151.018  1.00  0.00     0.046 A 
ATOM     16  C   UNL     1     -22.903 -17.078 149.938  1.00  0.00     0.003 A 
ATOM     17  C   UNL     1     -27.197 -17.788 151.408  1.00  0.00     0.087 A 
ATOM     18  N   UNL     1     -25.933 -18.022 151.910  1.00  0.00    -0.361 N 
ATOM     19  C   UNL     1     -23.576 -17.610 151.053  1.00  0.00     0.027 A 
ATOM     20  C   UNL     1     -28.010 -16.918 145.408  1.00  0.00     0.106 C 
ATOM     21  H   UNL     1     -25.735 -18.447 152.806  1.00  0.00     0.166 HD
ENDBRANCH   3   4
BRANCH   2  22
ATOM     22  C   UNL     1     -25.652 -10.576 145.508  1.00  0.00     0.116 C 
ATOM     23  C   UNL     1     -26.508 -10.001 144.388  1.00  0.00     0.027 C 
ENDBRANCH   2  22
BRANCH   2  24
ATOM     24  C   UNL     1     -24.694 -12.627 144.457  1.00  0.00     0.116 C 
ATOM     25  C   UNL     1     -23.223 -12.351 144.743  1.00  0.00     0.027 C 
ENDBRANCH   2  24
TORSDOF 3
ENDMDL
MODEL 7
REMARK VINA RESULT:    -8.472      2.156      6.815
REMARK INTER + INTRA:         -10.473
REMARK INTER:                  -9.956
REMARK INTRA:                  -0.517
REMARK UNBOUND:                -0.515
REMARK SMILES CCN(CC)C(=O)[C@@H]1C=C2c3cccc4[nH]cc(c34)C[C@H]2N(C)C1
REMARK SMILES IDX 7 1 3 2 6 3 8 4 24 5 9 6 22 7 10 8 21 9 11 10 20 11 19 12
REMARK SMILES IDX 12 13 18 14 15 15 13 16 17 17 16 18 14 19 23 20 2 22 1 23
REMARK SMILES IDX 4 24 5 25
REMARK H PARENT 16 21
ROOT
ATOM      1  O   UNL     1     -27.342 -11.908 141.677  1.00  0.00    -0.274 OA
ATOM      2  N   UNL     1     -28.481 -10.063 142.405  1.00  0.00    -0.343 N 
ATOM      3  C   UNL     1     -27.621 -11.142 142.611  1.00  0.00     0.230 C 
ENDROOT
BRANCH   3   4
ATOM      4  C   UNL     1     -26.983 -11.435 143.982  1.00  0.00     0.116 C 
ATOM      5  C   UNL     1     -25.451 -11.274 143.955  1.00  0.00     0.102 C 
ATOM      6  C   UNL     1     -27.442 -12.741 144.576  1.00  0.00    -0.007 C 
ATOM      7  N   UNL     1     -24.764 -11.709 145.188  1.00  0.00    -0.298 NA
ATOM      8  C   UNL     1     -26.582 -13.523 145.254  1.00  0.00    -0.026 C 
ATOM      9  C   UNL     1     -25.113 -13.108 145.546  1.00  0.00     0.091 C 
ATOM     10  C   UNL     1     -26.934 -14.905 145.641  1.00  0.00    -0.011 A 
ATOM     11  C   UNL     1     -24.080 -14.115 144.918  1.00  0.00     0.061 C 
ATOM     12  C   UNL     1     -25.839 -15.783 145.585  1.00  0.00     0.010 A 
ATOM     13  C   UNL     1     -28.176 -15.432 145.998  1.00  0.00     0.009 A 
ATOM     14  C   UNL     1     -24.487 -15.516 145.255  1.00  0.00    -0.020 A 
ATOM     15  C   UNL     1     -25.971 -17.130 145.875  1.00  0.00     0.046 A 
ATOM     16  C   UNL     1     -28.301 -16.798 146.295  1.00  0.00     0.003 A 
ATOM     17  C   UNL     1     -23.809 -16.710 145.340  1.00  0.00     0.087 A 
ATOM     18  N   UNL     1     -24.716 -17.678 145.718  1.00  0.00    -0.361 N 
ATOM     19  C   UNL     1     -27.204 -17.676 146.239  1.00  0.00     0.027 A 
ATOM     20  C   UNL     1     -25.045 -10.796 146.300  1.00  0.00     0.106 C 
ATOM     21  H   UNL     1     -24.495 -18.654 145.863  1.00  0.00     0.166 HD
ENDBRANCH   3   4
BRANCH   2  22
ATOM     22  C   UNL     1     -28.958  -9.859 141.031  1.00  0.00     0.116 C 
ATOM     23  C   UNL     1     -28.939  -8.392 140.627  1.00  0.00     0.027 C 
ENDBRANCH   2  22
BRANCH   2  24
ATOM     24  C   UNL     1     -28.768  -8.985 143.361  1.00  0.00     0.116 C 
ATOM     25  C   UNL     1     -30.037  -9.230 144.167  1.00  0.00     0.027 C 
ENDBRANCH   2  24
TORSDOF 3
ENDMDL
MODEL 8
REMARK VINA RESULT:    -8.262      4.974      7.257
REMARK INTER + INTRA:         -10.226
REMARK INTER:                 -10.051
REMARK INTRA:                  -0.175
REMARK UNBOUND:                -0.515
REMARK SMILES CCN(CC)C(=O)[C@@H]1C=C2c3cccc4[nH]cc(c34)C[C@H]2N(C)C1
REMARK SMILES IDX 7 1 3 2 6 3 8 4 24 5 9 6 22 7 10 8 21 9 11 10 20 11 19 12
REMARK SMILES IDX 12 13 18 14 15 15 13 16 17 17 16 18 14 19 23 20 2 22 1 23
REMARK SMILES IDX 4 24 5 25
REMARK H PARENT 16 21
ROOT
ATOM      1  O   UNL     1     -25.093 -15.650 149.796  1.00  0.00    -0.274 OA
ATOM      2  N   UNL     1     -24.041 -17.293 148.602  1.00  0.00    -0.343 N 
ATOM      3  C   UNL     1     -25.153 -16.503 148.898  1.00  0.00     0.230 C 
ENDROOT
BRANCH   3   4
ATOM      4  C   UNL     1     -26.487 -16.645 148.142  1.00  0.00     0.116 C 
ATOM      5  C   UNL     1     -26.582 -15.676 146.948  1.00  0.00     0.102 C 
ATOM      6  C   UNL     1     -27.686 -16.598 149.053  1.00  0.00    -0.007 C 
ATOM      7  N   UNL     1     -27.903 -15.638 146.289  1.00  0.00    -0.298 NA
ATOM      8  C   UNL     1     -28.813 -15.973 148.669  1.00  0.00    -0.026 C 
ATOM      9  C   UNL     1     -28.991 -15.345 147.258  1.00  0.00     0.091 C 
ATOM     10  C   UNL     1     -29.912 -15.706 149.619  1.00  0.00    -0.011 A 
ATOM     11  C   UNL     1     -29.266 -13.797 147.331  1.00  0.00     0.061 C 
ATOM     12  C   UNL     1     -30.562 -14.485 149.374  1.00  0.00     0.010 A 
ATOM     13  C   UNL     1     -30.339 -16.465 150.710  1.00  0.00     0.009 A 
ATOM     14  C   UNL     1     -30.331 -13.532 148.350  1.00  0.00    -0.020 A 
ATOM     15  C   UNL     1     -31.595 -14.037 150.178  1.00  0.00     0.046 A 
ATOM     16  C   UNL     1     -31.391 -16.006 151.517  1.00  0.00     0.003 A 
ATOM     17  C   UNL     1     -31.225 -12.506 148.547  1.00  0.00     0.087 A 
ATOM     18  N   UNL     1     -31.986 -12.822 149.654  1.00  0.00    -0.361 N 
ATOM     19  C   UNL     1     -32.040 -14.783 151.272  1.00  0.00     0.027 A 
ATOM     20  C   UNL     1     -28.167 -16.883 145.562  1.00  0.00     0.106 C 
ATOM     21  H   UNL     1     -32.728 -12.249 150.031  1.00  0.00     0.166 HD
ENDBRANCH   3   4
BRANCH   2  22
ATOM     22  C   UNL     1     -22.812 -17.000 149.350  1.00  0.00     0.116 C 
ATOM     23  C   UNL     1     -22.875 -17.510 150.783  1.00  0.00     0.027 C 
ENDBRANCH   2  22
BRANCH   2  24
ATOM     24  C   UNL     1     -23.909 -18.217 147.467  1.00  0.00     0.116 C 
ATOM     25  C   UNL     1     -23.558 -17.509 146.164  1.00  0.00     0.027 C 
ENDBRANCH   2  24
TORSDOF 3
ENDMDL
MODEL 9
REMARK VINA RESULT:    -8.201      1.727      6.973
REMARK INTER + INTRA:         -10.154
REMARK INTER:                 -10.738
REMARK INTRA:                   0.584
REMARK UNBOUND:                -0.515
REMARK SMILES CCN(CC)C(=O)[C@@H]1C=C2c3cccc4[nH]cc(c34)C[C@H]2N(C)C1
REMARK SMILES IDX 7 1 3 2 6 3 8 4 24 5 9 6 22 7 10 8 21 9 11 10 20 11 19 12
REMARK SMILES IDX 12 13 18 14 15 15 13 16 17 17 16 18 14 19 23 20 2 22 1 23
REMARK SMILES IDX 4 24 5 25
REMARK H PARENT 16 21
ROOT
ATOM      1  O   UNL     1     -30.121 -10.356 144.267  1.00  0.00    -0.274 OA
ATOM      2  N   UNL     1     -28.809 -10.169 142.404  1.00  0.00    -0.343 N 
ATOM      3  C   UNL     1     -29.006 -10.499 143.746  1.00  0.00     0.230 C 
ENDROOT
BRANCH   3   4
ATOM      4  C   UNL     1     -27.873 -11.047 144.632  1.00  0.00     0.116 C 
ATOM      5  C   UNL     1     -26.762 -11.720 143.803  1.00  0.00     0.102 C 
ATOM      6  C   UNL     1     -28.376 -11.898 145.769  1.00  0.00    -0.007 C 
ATOM      7  N   UNL     1     -25.735 -12.420 144.602  1.00  0.00    -0.298 NA
ATOM      8  C   UNL     1     -27.702 -12.997 146.151  1.00  0.00    -0.026 C 
ATOM      9  C   UNL     1     -26.341 -13.413 145.526  1.00  0.00     0.091 C 
ATOM     10  C   UNL     1     -28.286 -13.973 147.094  1.00  0.00    -0.011 A 
ATOM     11  C   UNL     1     -26.413 -14.830 144.846  1.00  0.00     0.061 C 
ATOM     12  C   UNL     1     -27.923 -15.299 146.802  1.00  0.00     0.010 A 
ATOM     13  C   UNL     1     -29.151 -13.756 148.167  1.00  0.00     0.009 A 
ATOM     14  C   UNL     1     -27.072 -15.795 145.782  1.00  0.00    -0.020 A 
ATOM     15  C   UNL     1     -28.397 -16.364 147.547  1.00  0.00     0.046 A 
ATOM     16  C   UNL     1     -29.624 -14.840 148.921  1.00  0.00     0.003 A 
ATOM     17  C   UNL     1     -27.045 -17.165 145.913  1.00  0.00     0.087 A 
ATOM     18  N   UNL     1     -27.848 -17.497 146.985  1.00  0.00    -0.361 N 
ATOM     19  C   UNL     1     -29.260 -16.167 148.628  1.00  0.00     0.027 A 
ATOM     20  C   UNL     1     -24.895 -11.467 145.333  1.00  0.00     0.106 C 
ATOM     21  H   UNL     1     -28.012 -18.438 147.317  1.00  0.00     0.166 HD
ENDBRANCH   3   4
BRANCH   2  22
ATOM     22  C   UNL     1     -29.993  -9.728 141.657  1.00  0.00     0.116 C 
ATOM     23  C   UNL     1     -29.943  -8.244 141.320  1.00  0.00     0.027 C 
ENDBRANCH   2  22
BRANCH   2  24
ATOM     24  C   UNL     1     -27.601 -10.439 141.611  1.00  0.00     0.116 C 
ATOM     25  C   UNL     1     -27.893 -11.211 140.331  1.00  0.00     0.027 C 
ENDBRANCH   2  24
TORSDOF 3
ENDMDL
MODEL 10
REMARK VINA RESULT:    -7.932      2.726      4.694
REMARK INTER + INTRA:          -9.839
REMARK INTER:                  -9.883
REMARK INTRA:                   0.045
REMARK UNBOUND:                -0.515
REMARK SMILES CCN(CC)C(=O)[C@@H]1C=C2c3cccc4[nH]cc(c34)C[C@H]2N(C)C1
REMARK SMILES IDX 7 1 3 2 6 3 8 4 24 5 9 6 22 7 10 8 21 9 11 10 20 11 19 12
REMARK SMILES IDX 12 13 18 14 15 15 13 16 17 17 16 18 14 19 23 20 2 22 1 23
REMARK SMILES IDX 4 24 5 25
REMARK H PARENT 16 21
ROOT
ATOM      1  O   UNL     1     -30.143 -13.665 149.031  1.00  0.00    -0.274 OA
ATOM      2  N   UNL     1     -30.150 -15.793 149.867  1.00  0.00    -0.343 N 
ATOM      3  C   UNL     1     -29.819 -14.853 148.891  1.00  0.00     0.230 C 
ENDROOT
BRANCH   3   4
ATOM      4  C   UNL     1     -29.049 -15.231 147.613  1.00  0.00     0.116 C 
ATOM      5  C   UNL     1     -27.764 -16.023 147.923  1.00  0.00     0.102 C 
ATOM      6  C   UNL     1     -28.827 -14.059 146.692  1.00  0.00    -0.007 C 
ATOM      7  N   UNL     1     -26.891 -16.263 146.756  1.00  0.00    -0.298 NA
ATOM      8  C   UNL     1     -27.672 -13.930 146.016  1.00  0.00    -0.026 C 
ATOM      9  C   UNL     1     -26.542 -14.996 146.061  1.00  0.00     0.091 C 
ATOM     10  C   UNL     1     -27.332 -12.684 145.297  1.00  0.00    -0.011 A 
ATOM     11  C   UNL     1     -25.196 -14.408 146.626  1.00  0.00     0.061 C 
ATOM     12  C   UNL     1     -25.960 -12.382 145.346  1.00  0.00     0.010 A 
ATOM     13  C   UNL     1     -28.174 -11.787 144.639  1.00  0.00     0.009 A 
ATOM     14  C   UNL     1     -24.899 -13.109 145.942  1.00  0.00    -0.020 A 
ATOM     15  C   UNL     1     -25.447 -11.237 144.763  1.00  0.00     0.046 A 
ATOM     16  C   UNL     1     -27.645 -10.631 144.046  1.00  0.00     0.003 A 
ATOM     17  C   UNL     1     -23.747 -12.391 145.721  1.00  0.00     0.087 A 
ATOM     18  N   UNL     1     -24.090 -11.262 145.006  1.00  0.00    -0.361 N 
ATOM     19  C   UNL     1     -26.272 -10.329 144.097  1.00  0.00     0.027 A 
ATOM     20  C   UNL     1     -27.501 -17.221 145.829  1.00  0.00     0.106 C 
ATOM     21  H   UNL     1     -23.440 -10.551 144.699  1.00  0.00     0.166 HD
ENDBRANCH   3   4
BRANCH   2  22
ATOM     22  C   UNL     1     -30.820 -15.281 151.069  1.00  0.00     0.116 C 
ATOM     23  C   UNL     1     -32.300 -15.634 151.099  1.00  0.00     0.027 C 
ENDBRANCH   2  22
BRANCH   2  24
ATOM     24  C   UNL     1     -29.692 -17.189 149.920  1.00  0.00     0.116 C 
ATOM     25  C   UNL     1     -29.013 -17.540 151.238  1.00  0.00     0.027 C 
ENDBRANCH   2  24
TORSDOF 3
ENDMDL
MODEL 11
REMARK VINA RESULT:    -7.700      2.281      7.148
REMARK INTER + INTRA:          -9.566
REMARK INTER:                  -9.638
REMARK INTRA:                   0.072
REMARK UNBOUND:                -0.515
REMARK SMILES CCN(CC)C(=O)[C@@H]1C=C2c3cccc4[nH]cc(c34)C[C@H]2N(C)C1
REMARK SMILES IDX 7 1 3 2 6 3 8 4 24 5 9 6 22 7 10 8 21 9 11 10 20 11 19 12
REMARK SMILES IDX 12 13 18 14 15 15 13 16 17 17 16 18 14 19 23 20 2 22 1 23
REMARK SMILES IDX 4 24 5 25
REMARK H PARENT 16 21
ROOT
ATOM      1  O   UNL     1     -28.518 -12.500 146.042  1.00  0.00    -0.274 OA
ATOM      2  N   UNL     1     -28.069 -10.985 144.390  1.00  0.00    -0.343 N 
ATOM      3  C   UNL     1     -27.672 -11.921 145.346  1.00  0.00     0.230 C 
ENDROOT
BRANCH   3   4
ATOM      4  C   UNL     1     -26.193 -12.278 145.583  1.00  0.00     0.116 C 
ATOM      5  C   UNL     1     -25.462 -12.620 144.271  1.00  0.00     0.102 C 
ATOM      6  C   UNL     1     -26.004 -13.308 146.666  1.00  0.00    -0.007 C 
ATOM      7  N   UNL     1     -24.091 -13.140 144.447  1.00  0.00    -0.298 NA
ATOM      8  C   UNL     1     -25.062 -14.260 146.546  1.00  0.00    -0.026 C 
ATOM      9  C   UNL     1     -24.062 -14.315 145.357  1.00  0.00     0.091 C 
ATOM     10  C   UNL     1     -25.008 -15.415 147.467  1.00  0.00    -0.011 A 
ATOM     11  C   UNL     1     -24.191 -15.653 144.539  1.00  0.00     0.061 C 
ATOM     12  C   UNL     1     -24.598 -16.600 146.832  1.00  0.00     0.010 A 
ATOM     13  C   UNL     1     -25.341 -15.481 148.820  1.00  0.00     0.009 A 
ATOM     14  C   UNL     1     -24.209 -16.812 145.486  1.00  0.00    -0.020 A 
ATOM     15  C   UNL     1     -24.519 -17.801 147.516  1.00  0.00     0.046 A 
ATOM     16  C   UNL     1     -25.254 -16.701 149.507  1.00  0.00     0.003 A 
ATOM     17  C   UNL     1     -23.904 -18.148 145.361  1.00  0.00     0.087 A 
ATOM     18  N   UNL     1     -24.093 -18.735 146.596  1.00  0.00    -0.361 N 
ATOM     19  C   UNL     1     -24.843 -17.887 148.872  1.00  0.00     0.027 A 
ATOM     20  C   UNL     1     -23.184 -12.089 144.917  1.00  0.00     0.106 C 
ATOM     21  H   UNL     1     -23.940 -19.713 146.802  1.00  0.00     0.166 HD
ENDBRANCH   3   4
BRANCH   2  22
ATOM     22  C   UNL     1     -29.515 -10.796 144.218  1.00  0.00     0.116 C 
ATOM     23  C   UNL     1     -29.964  -9.395 144.607  1.00  0.00     0.027 C 
ENDBRANCH   2  22
BRANCH   2  24
ATOM     24  C   UNL     1     -27.204 -10.349 143.385  1.00  0.00     0.116 C 
ATOM     25  C   UNL     1     -27.670 -10.602 141.957  1.00  0.00     0.027 C 
ENDBRANCH   2  24
TORSDOF 3
ENDMDL
MODEL 12
REMARK VINA RESULT:    -7.630      2.964      8.316
REMARK INTER + INTRA:          -9.484
REMARK INTER:                  -9.046
REMARK INTRA:                  -0.437
REMARK UNBOUND:                -0.515
REMARK SMILES CCN(CC)C(=O)[C@@H]1C=C2c3cccc4[nH]cc(c34)C[C@H]2N(C)C1
REMARK SMILES IDX 7 1 3 2 6 3 8 4 24 5 9 6 22 7 10 8 21 9 11 10 20 11 19 12
REMARK SMILES IDX 12 13 18 14 15 15 13 16 17 17 16 18 14 19 23 20 2 22 1 23
REMARK SMILES IDX 4 24 5 25
REMARK H PARENT 16 21
ROOT
ATOM      1  O   UNL     1     -25.063 -13.077 147.336  1.00  0.00    -0.274 OA
ATOM      2  N   UNL     1     -24.577 -13.205 145.105  1.00  0.00    -0.343 N 
ATOM      3  C   UNL     1     -25.156 -13.706 146.272  1.00  0.00     0.230 C 
ENDROOT
BRANCH   3   4
ATOM      4  C   UNL     1     -25.927 -15.038 146.301  1.00  0.00     0.116 C 
ATOM      5  C   UNL     1     -27.419 -14.853 145.963  1.00  0.00     0.102 C 
ATOM      6  C   UNL     1     -25.688 -15.827 147.562  1.00  0.00    -0.007 C 
ATOM      7  N   UNL     1     -28.247 -16.062 146.144  1.00  0.00    -0.298 NA
ATOM      8  C   UNL     1     -26.691 -16.514 148.139  1.00  0.00    -0.026 C 
ATOM      9  C   UNL     1     -28.111 -16.619 147.516  1.00  0.00     0.091 C 
ATOM     10  C   UNL     1     -26.552 -17.098 149.489  1.00  0.00    -0.011 A 
ATOM     11  C   UNL     1     -29.217 -16.028 148.466  1.00  0.00     0.061 C 
ATOM     12  C   UNL     1     -27.745 -17.051 150.229  1.00  0.00     0.010 A 
ATOM     13  C   UNL     1     -25.420 -17.628 150.109  1.00  0.00     0.009 A 
ATOM     14  C   UNL     1     -29.022 -16.569 149.848  1.00  0.00    -0.020 A 
ATOM     15  C   UNL     1     -27.811 -17.515 151.532  1.00  0.00     0.046 A 
ATOM     16  C   UNL     1     -25.496 -18.101 151.428  1.00  0.00     0.003 A 
ATOM     17  C   UNL     1     -29.855 -16.738 150.931  1.00  0.00     0.087 A 
ATOM     18  N   UNL     1     -29.112 -17.312 151.942  1.00  0.00    -0.361 N 
ATOM     19  C   UNL     1     -26.691 -18.053 152.169  1.00  0.00     0.027 A 
ATOM     20  C   UNL     1     -27.933 -17.075 145.132  1.00  0.00     0.106 C 
ATOM     21  H   UNL     1     -29.468 -17.555 152.856  1.00  0.00     0.166 HD
ENDBRANCH   3   4
BRANCH   2  22
ATOM     22  C   UNL     1     -23.936 -11.888 145.204  1.00  0.00     0.116 C 
ATOM     23  C   UNL     1     -22.494 -11.910 144.719  1.00  0.00     0.027 C 
ENDBRANCH   2  22
BRANCH   2  24
ATOM     24  C   UNL     1     -24.746 -13.748 143.749  1.00  0.00     0.116 C 
ATOM     25  C   UNL     1     -26.003 -13.236 143.059  1.00  0.00     0.027 C 
ENDBRANCH   2  24
TORSDOF 3
ENDMDL
MODEL 13
REMARK VINA RESULT:    -7.589      3.218      5.370
REMARK INTER + INTRA:          -9.436
REMARK INTER:                  -9.558
REMARK INTRA:                   0.123
REMARK UNBOUND:                -0.515
REMARK SMILES CCN(CC)C(=O)[C@@H]1C=C2c3cccc4[nH]cc(c34)C[C@H]2N(C)C1
REMARK SMILES IDX 7 1 3 2 6 3 8 4 24 5 9 6 22 7 10 8 21 9 11 10 20 11 19 12
REMARK SMILES IDX 12 13 18 14 15 15 13 16 17 17 16 18 14 19 23 20 2 22 1 23
REMARK SMILES IDX 4 24 5 25
REMARK H PARENT 16 21
ROOT
ATOM      1  O   UNL     1     -29.362 -16.423 150.610  1.00  0.00    -0.274 OA
ATOM      2  N   UNL     1     -30.804 -14.798 149.898  1.00  0.00    -0.343 N 
ATOM      3  C   UNL     1     -29.769 -15.709 149.683  1.00  0.00     0.230 C 
ENDROOT
BRANCH   3   4
ATOM      4  C   UNL     1     -29.090 -15.873 148.311  1.00  0.00     0.116 C 
ATOM      5  C   UNL     1     -27.705 -16.540 148.426  1.00  0.00     0.102 C 
ATOM      6  C   UNL     1     -29.081 -14.601 147.504  1.00  0.00    -0.007 C 
ATOM      7  N   UNL     1     -26.928 -16.567 147.170  1.00  0.00    -0.298 NA
ATOM      8  C   UNL     1     -28.015 -14.277 146.750  1.00  0.00    -0.026 C 
ATOM      9  C   UNL     1     -26.782 -15.208 146.586  1.00  0.00     0.091 C 
ATOM     10  C   UNL     1     -27.878 -12.938 146.140  1.00  0.00    -0.011 A 
ATOM     11  C   UNL     1     -25.457 -14.527 147.093  1.00  0.00     0.061 C 
ATOM     12  C   UNL     1     -26.547 -12.488 146.105  1.00  0.00     0.010 A 
ATOM     13  C   UNL     1     -28.868 -12.083 145.655  1.00  0.00     0.009 A 
ATOM     14  C   UNL     1     -25.364 -13.144 146.528  1.00  0.00    -0.020 A 
ATOM     15  C   UNL     1     -26.214 -11.241 145.605  1.00  0.00     0.046 A 
ATOM     16  C   UNL     1     -28.522 -10.822 145.146  1.00  0.00     0.003 A 
ATOM     17  C   UNL     1     -24.319 -12.282 146.287  1.00  0.00     0.087 A 
ATOM     18  N   UNL     1     -24.845 -11.136 145.728  1.00  0.00    -0.361 N 
ATOM     19  C   UNL     1     -27.190 -10.373 145.111  1.00  0.00     0.027 A 
ATOM     20  C   UNL     1     -27.521 -17.494 146.201  1.00  0.00     0.106 C 
ATOM     21  H   UNL     1     -24.305 -10.330 145.443  1.00  0.00     0.166 HD
ENDBRANCH   3   4
BRANCH   2  22
ATOM     22  C   UNL     1     -31.410 -14.799 151.235  1.00  0.00     0.116 C 
ATOM     23  C   UNL     1     -32.728 -15.559 151.269  1.00  0.00     0.027 C 
ENDBRANCH   2  22
BRANCH   2  24
ATOM     24  C   UNL     1     -31.498 -14.013 148.867  1.00  0.00     0.116 C 
ATOM     25  C   UNL     1     -31.669 -12.549 149.252  1.00  0.00     0.027 C 
ENDBRANCH   2  24
TORSDOF 3
ENDMDL
MODEL 14
REMARK VINA RESULT:    -7.430      3.059      7.261
REMARK INTER + INTRA:          -9.248
REMARK INTER:                  -9.139
REMARK INTRA:                  -0.109
REMARK UNBOUND:                -0.515
REMARK SMILES CCN(CC)C(=O)[C@@H]1C=C2c3cccc4[nH]cc(c34)C[C@H]2N(C)C1
REMARK SMILES IDX 7 1 3 2 6 3 8 4 24 5 9 6 22 7 10 8 21 9 11 10 20 11 19 12
REMARK SMILES IDX 12 13 18 14 15 15 13 16 17 17 16 18 14 19 23 20 2 22 1 23
REMARK SMILES IDX 4 24 5 25
REMARK H PARENT 16 21
ROOT
ATOM      1  O   UNL     1     -26.778 -10.158 140.069  1.00  0.00    -0.274 OA
ATOM      2  N   UNL     1     -28.554  -8.745 139.792  1.00  0.00    -0.343 N 
ATOM      3  C   UNL     1     -27.835  -9.695 140.519  1.00  0.00     0.230 C 
ENDROOT
BRANCH   3   4
ATOM      4  C   UNL     1     -28.306 -10.210 141.892  1.00  0.00     0.116 C 
ATOM      5  C   UNL     1     -28.247  -9.114 142.973  1.00  0.00     0.102 C 
ATOM      6  C   UNL     1     -27.635 -11.495 142.299  1.00  0.00    -0.007 C 
ATOM      7  N   UNL     1     -28.518  -9.587 144.346  1.00  0.00    -0.298 NA
ATOM      8  C   UNL     1     -27.287 -11.709 143.581  1.00  0.00    -0.026 C 
ATOM      9  C   UNL     1     -27.624 -10.712 144.725  1.00  0.00     0.091 C 
ATOM     10  C   UNL     1     -26.424 -12.843 143.970  1.00  0.00    -0.011 A 
ATOM     11  C   UNL     1     -26.329 -10.173 145.439  1.00  0.00     0.061 C 
ATOM     12  C   UNL     1     -25.553 -12.529 145.027  1.00  0.00     0.010 A 
ATOM     13  C   UNL     1     -26.340 -14.120 143.413  1.00  0.00     0.009 A 
ATOM     14  C   UNL     1     -25.428 -11.324 145.762  1.00  0.00    -0.020 A 
ATOM     15  C   UNL     1     -24.638 -13.447 145.512  1.00  0.00     0.046 A 
ATOM     16  C   UNL     1     -25.413 -15.047 143.913  1.00  0.00     0.003 A 
ATOM     17  C   UNL     1     -24.428 -11.520 146.687  1.00  0.00     0.087 A 
ATOM     18  N   UNL     1     -23.959 -12.808 146.527  1.00  0.00    -0.361 N 
ATOM     19  C   UNL     1     -24.541 -14.732 144.971  1.00  0.00     0.027 A 
ATOM     20  C   UNL     1     -29.927  -9.958 144.508  1.00  0.00     0.106 C 
ATOM     21  H   UNL     1     -23.223 -13.229 147.077  1.00  0.00     0.166 HD
ENDBRANCH   3   4
BRANCH   2  22
ATOM     22  C   UNL     1     -27.952  -8.290 138.534  1.00  0.00     0.116 C 
ATOM     23  C   UNL     1     -28.888  -8.472 137.347  1.00  0.00     0.027 C 
ENDBRANCH   2  22
BRANCH   2  24
ATOM     24  C   UNL     1     -29.723  -7.990 140.267  1.00  0.00     0.116 C 
ATOM     25  C   UNL     1     -29.349  -6.655 140.898  1.00  0.00     0.027 C 
ENDBRANCH   2  24
TORSDOF 3
ENDMDL
MODEL 15
REMARK VINA RESULT:    -7.299      2.607      7.508
REMARK INTER + INTRA:          -9.094
REMARK INTER:                  -9.342
REMARK INTRA:                   0.248
REMARK UNBOUND:                -0.515
REMARK SMILES CCN(CC)C(=O)[C@@H]1C=C2c3cccc4[nH]cc(c34)C[C@H]2N(C)C1
REMARK SMILES IDX 7 1 3 2 6 3 8 4 24 5 9 6 22 7 10 8 21 9 11 10 20 11 19 12
REMARK SMILES IDX 12 13 18 14 15 15 13 16 17 17 16 18 14 19 23 20 2 22 1 23
REMARK SMILES IDX 4 24 5 25
REMARK H PARENT 16 21
ROOT
ATOM      1  O   UNL     1     -29.789 -13.186 146.201  1.00  0.00    -0.274 OA
ATOM      2  N   UNL     1     -27.529 -12.835 146.241  1.00  0.00    -0.343 N 
ATOM      3  C   UNL     1     -28.663 -13.606 146.503  1.00  0.00     0.230 C 
ENDROOT
BRANCH   3   4
ATOM      4  C   UNL     1     -28.579 -14.991 147.169  1.00  0.00     0.116 C 
ATOM      5  C   UNL     1     -28.677 -14.904 148.704  1.00  0.00     0.102 C 
ATOM      6  C   UNL     1     -27.406 -15.805 146.685  1.00  0.00    -0.007 C 
ATOM      7  N   UNL     1     -28.428 -16.177 149.411  1.00  0.00    -0.298 NA
ATOM      8  C   UNL     1     -26.717 -16.584 147.538  1.00  0.00    -0.026 C 
ATOM      9  C   UNL     1     -27.120 -16.771 149.027  1.00  0.00     0.091 C 
ATOM     10  C   UNL     1     -25.431 -17.203 147.152  1.00  0.00    -0.011 A 
ATOM     11  C   UNL     1     -25.987 -16.296 150.010  1.00  0.00     0.061 C 
ATOM     12  C   UNL     1     -24.517 -17.270 148.217  1.00  0.00     0.010 A 
ATOM     13  C   UNL     1     -25.016 -17.670 145.905  1.00  0.00     0.009 A 
ATOM     14  C   UNL     1     -24.677 -16.870 149.568  1.00  0.00    -0.020 A 
ATOM     15  C   UNL     1     -23.242 -17.783 148.050  1.00  0.00     0.046 A 
ATOM     16  C   UNL     1     -23.724 -18.194 145.744  1.00  0.00     0.003 A 
ATOM     17  C   UNL     1     -23.489 -17.138 150.209  1.00  0.00     0.087 A 
ATOM     18  N   UNL     1     -22.630 -17.691 149.282  1.00  0.00    -0.361 N 
ATOM     19  C   UNL     1     -22.809 -18.260 146.811  1.00  0.00     0.027 A 
ATOM     20  C   UNL     1     -29.522 -17.127 149.190  1.00  0.00     0.106 C 
ATOM     21  H   UNL     1     -21.684 -17.992 149.475  1.00  0.00     0.166 HD
ENDBRANCH   3   4
BRANCH   2  22
ATOM     22  C   UNL     1     -27.749 -11.566 145.535  1.00  0.00     0.116 C 
ATOM     23  C   UNL     1     -27.509 -11.692 144.037  1.00  0.00     0.027 C 
ENDBRANCH   2  22
BRANCH   2  24
ATOM     24  C   UNL     1     -26.132 -13.267 146.387  1.00  0.00     0.116 C 
ATOM     25  C   UNL     1     -25.167 -12.101 146.564  1.00  0.00     0.027 C 
ENDBRANCH   2  24
TORSDOF 3
ENDMDL
MODEL 16
REMARK VINA RESULT:    -7.212      3.271      6.612
REMARK INTER + INTRA:          -8.992
REMARK INTER:                  -9.534
REMARK INTRA:                   0.542
REMARK UNBOUND:                -0.515
REMARK SMILES CCN(CC)C(=O)[C@@H]1C=C2c3cccc4[nH]cc(c34)C[C@H]2N(C)C1
REMARK SMILES IDX 7 1 3 2 6 3 8 4 24 5 9 6 22 7 10 8 21 9 11 10 20 11 19 12
REMARK SMILES IDX 12 13 18 14 15 15 13 16 17 17 16 18 14 19 23 20 2 22 1 23
REMARK SMILES IDX 4 24 5 25
REMARK H PARENT 16 21
ROOT
ATOM      1  O   UNL     1     -27.477 -10.533 144.711  1.00  0.00    -0.274 OA
ATOM      2  N   UNL     1     -28.381 -12.185 146.008  1.00  0.00    -0.343 N 
ATOM      3  C   UNL     1     -27.295 -11.530 145.423  1.00  0.00     0.230 C 
ENDROOT
BRANCH   3   4
ATOM      4  C   UNL     1     -25.844 -12.002 145.626  1.00  0.00     0.116 C 
ATOM      5  C   UNL     1     -25.140 -12.303 144.289  1.00  0.00     0.102 C 
ATOM      6  C   UNL     1     -25.725 -13.116 146.634  1.00  0.00    -0.007 C 
ATOM      7  N   UNL     1     -23.807 -12.926 144.421  1.00  0.00    -0.298 NA
ATOM      8  C   UNL     1     -24.849 -14.119 146.444  1.00  0.00    -0.026 C 
ATOM      9  C   UNL     1     -23.857 -14.160 145.248  1.00  0.00     0.091 C 
ATOM     10  C   UNL     1     -24.873 -15.336 147.282  1.00  0.00    -0.011 A 
ATOM     11  C   UNL     1     -24.079 -15.426 144.340  1.00  0.00     0.061 C 
ATOM     12  C   UNL     1     -24.546 -16.500 146.565  1.00  0.00     0.010 A 
ATOM     13  C   UNL     1     -25.208 -15.473 148.630  1.00  0.00     0.009 A 
ATOM     14  C   UNL     1     -24.175 -16.644 145.205  1.00  0.00    -0.020 A 
ATOM     15  C   UNL     1     -24.549 -17.747 147.164  1.00  0.00     0.046 A 
ATOM     16  C   UNL     1     -25.204 -16.741 149.231  1.00  0.00     0.003 A 
ATOM     17  C   UNL     1     -23.962 -17.986 144.987  1.00  0.00     0.087 A 
ATOM     18  N   UNL     1     -24.189 -18.643 146.179  1.00  0.00    -0.361 N 
ATOM     19  C   UNL     1     -24.876 -17.905 148.513  1.00  0.00     0.027 A 
ATOM     20  C   UNL     1     -22.830 -11.974 144.957  1.00  0.00     0.106 C 
ATOM     21  H   UNL     1     -24.102 -19.640 146.316  1.00  0.00     0.166 HD
ENDBRANCH   3   4
BRANCH   2  22
ATOM     22  C   UNL     1     -29.702 -11.583 145.792  1.00  0.00     0.116 C 
ATOM     23  C   UNL     1     -30.454 -11.359 147.096  1.00  0.00     0.027 C 
ENDBRANCH   2  22
BRANCH   2  24
ATOM     24  C   UNL     1     -28.311 -13.266 147.001  1.00  0.00     0.116 C 
ATOM     25  C   UNL     1     -29.099 -14.502 146.588  1.00  0.00     0.027 C 
ENDBRANCH   2  24
TORSDOF 3
ENDMDL
MODEL 17
REMARK VINA RESULT:    -7.157      2.799      7.354
REMARK INTER + INTRA:          -8.928
REMARK INTER:                  -8.581
REMARK INTRA:                  -0.347
REMARK UNBOUND:                -0.515
REMARK SMILES CCN(CC)C(=O)[C@@H]1C=C2c3cccc4[nH]cc(c34)C[C@H]2N(C)C1
REMARK SMILES IDX 7 1 3 2 6 3 8 4 24 5 9 6 22 7 10 8 21 9 11 10 20 11 19 12
REMARK SMILES IDX 12 13 18 14 15 15 13 16 17 17 16 18 14 19 23 20 2 22 1 23
REMARK SMILES IDX 4 24 5 25
REMARK H PARENT 16 21
ROOT
ATOM      1  O   UNL     1     -25.807 -11.682 145.583  1.00  0.00    -0.274 OA
ATOM      2  N   UNL     1     -27.877 -11.006 144.883  1.00  0.00    -0.343 N 
ATOM      3  C   UNL     1     -27.000 -11.962 145.398  1.00  0.00     0.230 C 
ENDROOT
BRANCH   3   4
ATOM      4  C   UNL     1     -27.457 -13.388 145.756  1.00  0.00     0.116 C 
ATOM      5  C   UNL     1     -28.050 -13.467 147.176  1.00  0.00     0.102 C 
ATOM      6  C   UNL     1     -26.402 -14.429 145.484  1.00  0.00    -0.007 C 
ATOM      7  N   UNL     1     -28.345 -14.837 147.645  1.00  0.00    -0.298 NA
ATOM      8  C   UNL     1     -26.234 -15.468 146.322  1.00  0.00    -0.026 C 
ATOM      9  C   UNL     1     -27.151 -15.718 147.552  1.00  0.00     0.091 C 
ATOM     10  C   UNL     1     -25.066 -16.366 146.216  1.00  0.00    -0.011 A 
ATOM     11  C   UNL     1     -26.345 -15.701 148.903  1.00  0.00     0.061 C 
ATOM     12  C   UNL     1     -24.608 -16.816 147.466  1.00  0.00     0.010 A 
ATOM     13  C   UNL     1     -24.366 -16.773 145.080  1.00  0.00     0.009 A 
ATOM     14  C   UNL     1     -25.124 -16.557 148.760  1.00  0.00    -0.020 A 
ATOM     15  C   UNL     1     -23.500 -17.637 147.582  1.00  0.00     0.046 A 
ATOM     16  C   UNL     1     -23.247 -17.610 145.205  1.00  0.00     0.003 A 
ATOM     17  C   UNL     1     -24.317 -17.221 149.655  1.00  0.00     0.087 A 
ATOM     18  N   UNL     1     -23.340 -17.872 148.931  1.00  0.00    -0.361 N 
ATOM     19  C   UNL     1     -22.788 -18.059 146.456  1.00  0.00     0.027 A 
ATOM     20  C   UNL     1     -29.481 -15.411 146.917  1.00  0.00     0.106 C 
ATOM     21  H   UNL     1     -22.608 -18.444 149.329  1.00  0.00     0.166 HD
ENDBRANCH   3   4
BRANCH   2  22
ATOM     22  C   UNL     1     -27.324  -9.665 144.656  1.00  0.00     0.116 C 
ATOM     23  C   UNL     1     -28.150  -8.862 143.662  1.00  0.00     0.027 C 
ENDBRANCH   2  22
BRANCH   2  24
ATOM     24  C   UNL     1     -29.337 -11.138 144.769  1.00  0.00     0.116 C 
ATOM     25  C   UNL     1     -30.067 -10.771 146.054  1.00  0.00     0.027 C 
ENDBRANCH   2  24
TORSDOF 3
ENDMDL
MODEL 18
REMARK VINA RESULT:    -7.065      4.323      7.526
REMARK INTER + INTRA:          -8.819
REMARK INTER:                  -8.383
REMARK INTRA:                  -0.435
REMARK UNBOUND:                -0.515
REMARK SMILES CCN(CC)C(=O)[C@@H]1C=C2c3cccc4[nH]cc(c34)C[C@H]2N(C)C1
REMARK SMILES IDX 7 1 3 2 6 3 8 4 24 5 9 6 22 7 10 8 21 9 11 10 20 11 19 12
REMARK SMILES IDX 12 13 18 14 15 15 13 16 17 17 16 18 14 19 23 20 2 22 1 23
REMARK SMILES IDX 4 24 5 25
REMARK H PARENT 16 21
ROOT
ATOM      1  O   UNL     1     -30.032 -17.173 149.844  1.00  0.00    -0.274 OA
ATOM      2  N   UNL     1     -31.209 -15.257 150.258  1.00  0.00    -0.343 N 
ATOM      3  C   UNL     1     -30.144 -15.950 149.681  1.00  0.00     0.230 C 
ENDROOT
BRANCH   3   4
ATOM      4  C   UNL     1     -29.072 -15.247 148.828  1.00  0.00     0.116 C 
ATOM      5  C   UNL     1     -29.355 -15.376 147.319  1.00  0.00     0.102 C 
ATOM      6  C   UNL     1     -27.668 -15.635 149.213  1.00  0.00    -0.007 C 
ATOM      7  N   UNL     1     -28.275 -14.876 146.444  1.00  0.00    -0.298 NA
ATOM      8  C   UNL     1     -26.721 -15.796 148.272  1.00  0.00    -0.026 C 
ATOM      9  C   UNL     1     -26.971 -15.514 146.764  1.00  0.00     0.091 C 
ATOM     10  C   UNL     1     -25.410 -16.401 148.589  1.00  0.00    -0.011 A 
ATOM     11  C   UNL     1     -26.750 -16.795 145.879  1.00  0.00     0.061 C 
ATOM     12  C   UNL     1     -24.905 -17.190 147.542  1.00  0.00     0.010 A 
ATOM     13  C   UNL     1     -24.663 -16.322 149.765  1.00  0.00     0.009 A 
ATOM     14  C   UNL     1     -25.453 -17.441 146.259  1.00  0.00    -0.020 A 
ATOM     15  C   UNL     1     -23.707 -17.872 147.658  1.00  0.00     0.046 A 
ATOM     16  C   UNL     1     -23.446 -17.012 149.874  1.00  0.00     0.003 A 
ATOM     17  C   UNL     1     -24.582 -18.283 145.607  1.00  0.00     0.087 A 
ATOM     18  N   UNL     1     -23.529 -18.535 146.463  1.00  0.00    -0.361 N 
ATOM     19  C   UNL     1     -22.942 -17.803 148.825  1.00  0.00     0.027 A 
ATOM     20  C   UNL     1     -28.176 -13.415 146.509  1.00  0.00     0.106 C 
ATOM     21  H   UNL     1     -22.734 -19.122 146.246  1.00  0.00     0.166 HD
ENDBRANCH   3   4
BRANCH   2  22
ATOM     22  C   UNL     1     -32.199 -16.063 150.984  1.00  0.00     0.116 C 
ATOM     23  C   UNL     1     -31.939 -16.081 152.484  1.00  0.00     0.027 C 
ENDBRANCH   2  22
BRANCH   2  24
ATOM     24  C   UNL     1     -31.564 -13.851 150.017  1.00  0.00     0.116 C 
ATOM     25  C   UNL     1     -33.065 -13.635 149.871  1.00  0.00     0.027 C 
ENDBRANCH   2  24
TORSDOF 3
ENDMDL
MODEL 19
REMARK VINA RESULT:    -6.969      2.741      7.313
REMARK INTER + INTRA:          -8.707
REMARK INTER:                  -8.407
REMARK INTRA:                  -0.300
REMARK UNBOUND:                -0.515
REMARK SMILES CCN(CC)C(=O)[C@@H]1C=C2c3cccc4[nH]cc(c34)C[C@H]2N(C)C1
REMARK SMILES IDX 7 1 3 2 6 3 8 4 24 5 9 6 22 7 10 8 21 9 11 10 20 11 19 12
REMARK SMILES IDX 12 13 18 14 15 15 13 16 17 17 16 18 14 19 23 20 2 22 1 23
REMARK SMILES IDX 4 24 5 25
REMARK H PARENT 16 21
ROOT
ATOM      1  O   UNL     1     -26.947 -12.637 143.227  1.00  0.00    -0.274 OA
ATOM      2  N   UNL     1     -26.042 -11.820 145.162  1.00  0.00    -0.343 N 
ATOM      3  C   UNL     1     -26.720 -12.799 144.435  1.00  0.00     0.230 C 
ENDROOT
BRANCH   3   4
ATOM      4  C   UNL     1     -27.214 -14.107 145.079  1.00  0.00     0.116 C 
ATOM      5  C   UNL     1     -27.965 -13.855 146.401  1.00  0.00     0.102 C 
ATOM      6  C   UNL     1     -26.133 -15.151 145.190  1.00  0.00    -0.007 C 
ATOM      7  N   UNL     1     -28.310 -15.076 147.156  1.00  0.00    -0.298 NA
ATOM      8  C   UNL     1     -26.062 -15.950 146.270  1.00  0.00    -0.026 C 
ATOM      9  C   UNL     1     -27.113 -15.919 147.414  1.00  0.00     0.091 C 
ATOM     10  C   UNL     1     -24.889 -16.813 146.517  1.00  0.00    -0.011 A 
ATOM     11  C   UNL     1     -26.466 -15.550 148.801  1.00  0.00     0.061 C 
ATOM     12  C   UNL     1     -24.575 -16.931 147.882  1.00  0.00     0.010 A 
ATOM     13  C   UNL     1     -24.063 -17.464 145.600  1.00  0.00     0.009 A 
ATOM     14  C   UNL     1     -25.236 -16.380 149.008  1.00  0.00    -0.020 A 
ATOM     15  C   UNL     1     -23.487 -17.667 148.317  1.00  0.00     0.046 A 
ATOM     16  C   UNL     1     -22.965 -18.213 146.049  1.00  0.00     0.003 A 
ATOM     17  C   UNL     1     -24.536 -16.782 150.122  1.00  0.00     0.087 A 
ATOM     18  N   UNL     1     -23.482 -17.562 149.692  1.00  0.00    -0.361 N 
ATOM     19  C   UNL     1     -22.651 -18.330 147.415  1.00  0.00     0.027 A 
ATOM     20  C   UNL     1     -29.355 -15.843 146.471  1.00  0.00     0.106 C 
ATOM     21  H   UNL     1     -22.800 -17.998 150.297  1.00  0.00     0.166 HD
ENDBRANCH   3   4
BRANCH   2  22
ATOM     22  C   UNL     1     -25.563 -10.656 144.406  1.00  0.00     0.116 C 
ATOM     23  C   UNL     1     -26.497  -9.461 144.533  1.00  0.00     0.027 C 
ENDBRANCH   2  22
BRANCH   2  24
ATOM     24  C   UNL     1     -25.558 -11.943 146.544  1.00  0.00     0.116 C 
ATOM     25  C   UNL     1     -24.160 -12.542 146.632  1.00  0.00     0.027 C 
ENDBRANCH   2  24
TORSDOF 3
ENDMDL
