MODEL 1
REMARK VINA RESULT:    -8.197      0.000      0.000
REMARK INTER + INTRA:         -10.031
REMARK INTER:                  -9.635
REMARK INTRA:                  -0.396
REMARK UNBOUND:                -0.396
REMARK SMILES CCN(CC)C(=O)[C@@H]1C=C2c3cccc4[nH]cc(c34)C[C@H]2N(C)C1
REMARK SMILES IDX 7 1 3 2 6 3 8 4 24 5 9 6 22 7 10 8 21 9 11 10 20 11 19 12
REMARK SMILES IDX 12 13 18 14 15 15 13 16 17 17 16 18 14 19 23 20 2 22 1 23
REMARK SMILES IDX 4 24 5 25
REMARK H PARENT 16 21
ROOT
ATOM      1  O   UNL     1      92.624 109.229  76.328  1.00  0.00    -0.274 OA
ATOM      2  N   UNL     1      92.481 107.521  74.814  1.00  0.00    -0.343 N 
ATOM      3  C   UNL     1      92.145 108.127  76.026  1.00  0.00     0.230 C 
ENDROOT
BRANCH   3   4
ATOM      4  C   UNL     1      91.180 107.474  77.032  1.00  0.00     0.116 C 
ATOM      5  C   UNL     1      89.724 107.933  76.820  1.00  0.00     0.102 C 
ATOM      6  C   UNL     1      91.649 107.595  78.459  1.00  0.00    -0.007 C 
ATOM      7  N   UNL     1      88.778 107.481  77.861  1.00  0.00    -0.298 NA
ATOM      8  C   UNL     1      90.768 107.815  79.451  1.00  0.00    -0.026 C 
ATOM      9  C   UNL     1      89.232 107.869  79.222  1.00  0.00     0.091 C 
ATOM     10  C   UNL     1      91.213 108.172  80.815  1.00  0.00    -0.011 A 
ATOM     11  C   UNL     1      88.622 109.261  79.632  1.00  0.00     0.061 C 
ATOM     12  C   UNL     1      90.350 109.080  81.450  1.00  0.00     0.010 A 
ATOM     13  C   UNL     1      92.357 107.768  81.504  1.00  0.00     0.009 A 
ATOM     14  C   UNL     1      89.137 109.647  80.984  1.00  0.00    -0.020 A 
ATOM     15  C   UNL     1      90.612 109.566  82.720  1.00  0.00     0.046 A 
ATOM     16  C   UNL     1      92.614 108.261  82.792  1.00  0.00     0.003 A 
ATOM     17  C   UNL     1      88.676 110.481  81.976  1.00  0.00     0.087 A 
ATOM     18  N   UNL     1      89.575 110.423  83.021  1.00  0.00    -0.361 N 
ATOM     19  C   UNL     1      91.750 109.171  83.427  1.00  0.00     0.027 A 
ATOM     20  C   UNL     1      88.551 106.035  77.776  1.00  0.00     0.106 C 
ATOM     21  H   UNL     1      89.488 110.933  83.889  1.00  0.00     0.166 HD
ENDBRANCH   3   4
BRANCH   2  22
ATOM     22  C   UNL     1      93.353 108.289  73.918  1.00  0.00     0.116 C 
ATOM     23  C   UNL     1      92.698 108.564  72.572  1.00  0.00     0.027 C 
ENDBRANCH   2  22
BRANCH   2  24
ATOM     24  C   UNL     1      91.869 106.310  74.250  1.00  0.00     0.116 C 
ATOM     25  C   UNL     1      92.378 105.030  74.900  1.00  0.00     0.027 C 
ENDBRANCH   2  24
TORSDOF 3
ENDMDL
MODEL 2
REMARK VINA RESULT:    -7.896      1.425      2.080
REMARK INTER + INTRA:          -9.676
REMARK INTER:                  -9.702
REMARK INTRA:                   0.025
REMARK UNBOUND:                -0.396
REMARK SMILES CCN(CC)C(=O)[C@@H]1C=C2c3cccc4[nH]cc(c34)C[C@H]2N(C)C1
REMARK SMILES IDX 7 1 3 2 6 3 8 4 24 5 9 6 22 7 10 8 21 9 11 10 20 11 19 12
REMARK SMILES IDX 12 13 18 14 15 15 13 16 17 17 16 18 14 19 23 20 2 22 1 23
REMARK SMILES IDX 4 24 5 25
REMARK H PARENT 16 21
ROOT
ATOM      1  O   UNL     1      93.133 107.979  75.415  1.00  0.00    -0.274 OA
ATOM      2  N   UNL     1      92.021 109.957  75.700  1.00  0.00    -0.343 N 
ATOM      3  C   UNL     1      92.200 108.596  75.950  1.00  0.00     0.230 C 
ENDROOT
BRANCH   3   4
ATOM      4  C   UNL     1      91.270 107.802  76.885  1.00  0.00     0.116 C 
ATOM      5  C   UNL     1      89.792 108.196  76.703  1.00  0.00     0.102 C 
ATOM      6  C   UNL     1      91.726 107.821  78.321  1.00  0.00    -0.007 C 
ATOM      7  N   UNL     1      88.869 107.600  77.690  1.00  0.00    -0.298 NA
ATOM      8  C   UNL     1      90.831 107.901  79.322  1.00  0.00    -0.026 C 
ATOM      9  C   UNL     1      89.295 107.890  79.085  1.00  0.00     0.091 C 
ATOM     10  C   UNL     1      91.250 108.158  80.715  1.00  0.00    -0.011 A 
ATOM     11  C   UNL     1      88.607 109.203  79.612  1.00  0.00     0.061 C 
ATOM     12  C   UNL     1      90.335 108.956  81.422  1.00  0.00     0.010 A 
ATOM     13  C   UNL     1      92.413 107.759  81.375  1.00  0.00     0.009 A 
ATOM     14  C   UNL     1      89.094 109.494  80.998  1.00  0.00    -0.020 A 
ATOM     15  C   UNL     1      90.565 109.340  82.732  1.00  0.00     0.046 A 
ATOM     16  C   UNL     1      92.636 108.148  82.705  1.00  0.00     0.003 A 
ATOM     17  C   UNL     1      88.582 110.209  82.056  1.00  0.00     0.087 A 
ATOM     18  N   UNL     1      89.480 110.107  83.100  1.00  0.00    -0.361 N 
ATOM     19  C   UNL     1      91.720 108.947  83.411  1.00  0.00     0.027 A 
ATOM     20  C   UNL     1      88.724 106.157  77.474  1.00  0.00     0.106 C 
ATOM     21  H   UNL     1      89.360 110.532  84.009  1.00  0.00     0.166 HD
ENDBRANCH   3   4
BRANCH   2  22
ATOM     22  C   UNL     1      93.025 110.604  74.847  1.00  0.00     0.116 C 
ATOM     23  C   UNL     1      92.547 110.761  73.410  1.00  0.00     0.027 C 
ENDBRANCH   2  22
BRANCH   2  24
ATOM     24  C   UNL     1      91.074 110.849  76.384  1.00  0.00     0.116 C 
ATOM     25  C   UNL     1      91.666 112.219  76.690  1.00  0.00     0.027 C 
ENDBRANCH   2  24
TORSDOF 3
ENDMDL
MODEL 3
REMARK VINA RESULT:    -7.783      2.005      6.967
REMARK INTER + INTRA:          -9.544
REMARK INTER:                  -8.973
REMARK INTRA:                  -0.571
REMARK UNBOUND:                -0.396
REMARK SMILES CCN(CC)C(=O)[C@@H]1C=C2c3cccc4[nH]cc(c34)C[C@H]2N(C)C1
REMARK SMILES IDX 7 1 3 2 6 3 8 4 24 5 9 6 22 7 10 8 21 9 11 10 20 11 19 12
REMARK SMILES IDX 12 13 18 14 15 15 13 16 17 17 16 18 14 19 23 20 2 22 1 23
REMARK SMILES IDX 4 24 5 25
REMARK H PARENT 16 21
ROOT
ATOM      1  O   UNL     1      91.349 107.883  81.400  1.00  0.00    -0.274 OA
ATOM      2  N   UNL     1      89.898 109.527  82.046  1.00  0.00    -0.343 N 
ATOM      3  C   UNL     1      90.380 108.602  81.119  1.00  0.00     0.230 C 
ENDROOT
BRANCH   3   4
ATOM      4  C   UNL     1      89.746 108.427  79.727  1.00  0.00     0.116 C 
ATOM      5  C   UNL     1      89.792 106.963  79.249  1.00  0.00     0.102 C 
ATOM      6  C   UNL     1      90.275 109.408  78.714  1.00  0.00    -0.007 C 
ATOM      7  N   UNL     1      89.361 106.756  77.852  1.00  0.00    -0.298 NA
ATOM      8  C   UNL     1      90.487 109.030  77.441  1.00  0.00    -0.026 C 
ATOM      9  C   UNL     1      90.126 107.614  76.909  1.00  0.00     0.091 C 
ATOM     10  C   UNL     1      91.219 109.891  76.489  1.00  0.00    -0.011 A 
ATOM     11  C   UNL     1      91.389 106.849  76.365  1.00  0.00     0.061 C 
ATOM     12  C   UNL     1      92.012 109.158  75.589  1.00  0.00     0.010 A 
ATOM     13  C   UNL     1      91.253 111.283  76.405  1.00  0.00     0.009 A 
ATOM     14  C   UNL     1      92.164 107.755  75.459  1.00  0.00    -0.020 A 
ATOM     15  C   UNL     1      92.805 109.784  74.643  1.00  0.00     0.046 A 
ATOM     16  C   UNL     1      92.055 111.910  75.439  1.00  0.00     0.003 A 
ATOM     17  C   UNL     1      93.057 107.541  74.435  1.00  0.00     0.087 A 
ATOM     18  N   UNL     1      93.436 108.775  73.948  1.00  0.00    -0.361 N 
ATOM     19  C   UNL     1      92.849 111.176  74.539  1.00  0.00     0.027 A 
ATOM     20  C   UNL     1      87.919 106.973  77.706  1.00  0.00     0.106 C 
ATOM     21  H   UNL     1      94.084 108.923  73.186  1.00  0.00     0.166 HD
ENDBRANCH   3   4
BRANCH   2  22
ATOM     22  C   UNL     1      90.549 109.537  83.362  1.00  0.00     0.116 C 
ATOM     23  C   UNL     1      89.585 109.181  84.485  1.00  0.00     0.027 C 
ENDBRANCH   2  22
BRANCH   2  24
ATOM     24  C   UNL     1      88.667 110.321  81.922  1.00  0.00     0.116 C 
ATOM     25  C   UNL     1      88.918 111.726  81.392  1.00  0.00     0.027 C 
ENDBRANCH   2  24
TORSDOF 3
ENDMDL
MODEL 4
REMARK VINA RESULT:    -7.416      2.284      4.251
REMARK INTER + INTRA:          -9.112
REMARK INTER:                  -8.574
REMARK INTRA:                  -0.539
REMARK UNBOUND:                -0.396
REMARK SMILES CCN(CC)C(=O)[C@@H]1C=C2c3cccc4[nH]cc(c34)C[C@H]2N(C)C1
REMARK SMILES IDX 7 1 3 2 6 3 8 4 24 5 9 6 22 7 10 8 21 9 11 10 20 11 19 12
REMARK SMILES IDX 12 13 18 14 15 15 13 16 17 17 16 18 14 19 23 20 2 22 1 23
REMARK SMILES IDX 4 24 5 25
REMARK H PARENT 16 21
ROOT
ATOM      1  O   UNL     1      88.435 106.600  78.978  1.00  0.00    -0.274 OA
ATOM      2  N   UNL     1      89.609 107.373  77.174  1.00  0.00    -0.343 N 
ATOM      3  C   UNL     1      89.402 107.247  78.549  1.00  0.00     0.230 C 
ENDROOT
BRANCH   3   4
ATOM      4  C   UNL     1      90.341 107.889  79.585  1.00  0.00     0.116 C 
ATOM      5  C   UNL     1      90.552 106.986  80.815  1.00  0.00     0.102 C 
ATOM      6  C   UNL     1      89.951 109.302  79.935  1.00  0.00    -0.007 C 
ATOM      7  N   UNL     1      91.301 107.616  81.922  1.00  0.00    -0.298 NA
ATOM      8  C   UNL     1      90.066 109.750  81.197  1.00  0.00    -0.026 C 
ATOM      9  C   UNL     1      90.678 108.899  82.344  1.00  0.00     0.091 C 
ATOM     10  C   UNL     1      89.477 111.039  81.617  1.00  0.00    -0.011 A 
ATOM     11  C   UNL     1      89.653 108.657  83.513  1.00  0.00     0.061 C 
ATOM     12  C   UNL     1      88.982 111.010  82.932  1.00  0.00     0.010 A 
ATOM     13  C   UNL     1      89.320 112.217  80.887  1.00  0.00     0.009 A 
ATOM     14  C   UNL     1      89.008 109.958  83.881  1.00  0.00    -0.020 A 
ATOM     15  C   UNL     1      88.359 112.109  83.498  1.00  0.00     0.046 A 
ATOM     16  C   UNL     1      88.691 113.328  81.469  1.00  0.00     0.003 A 
ATOM     17  C   UNL     1      88.390 110.426  85.017  1.00  0.00     0.087 A 
ATOM     18  N   UNL     1      88.003 111.728  84.775  1.00  0.00    -0.361 N 
ATOM     19  C   UNL     1      88.195 113.299  82.785  1.00  0.00     0.027 A 
ATOM     20  C   UNL     1      92.710 107.808  81.565  1.00  0.00     0.106 C 
ATOM     21  H   UNL     1      87.528 112.325  85.439  1.00  0.00     0.166 HD
ENDBRANCH   3   4
BRANCH   2  22
ATOM     22  C   UNL     1      88.679 106.647  76.301  1.00  0.00     0.116 C 
ATOM     23  C   UNL     1      89.363 106.105  75.055  1.00  0.00     0.027 C 
ENDBRANCH   2  22
BRANCH   2  24
ATOM     24  C   UNL     1      90.790 107.960  76.525  1.00  0.00     0.116 C 
ATOM     25  C   UNL     1      90.664 109.463  76.311  1.00  0.00     0.027 C 
ENDBRANCH   2  24
TORSDOF 3
ENDMDL
MODEL 5
REMARK VINA RESULT:    -7.170      2.209      7.131
REMARK INTER + INTRA:          -8.824
REMARK INTER:                  -8.420
REMARK INTRA:                  -0.404
REMARK UNBOUND:                -0.396
REMARK SMILES CCN(CC)C(=O)[C@@H]1C=C2c3cccc4[nH]cc(c34)C[C@H]2N(C)C1
REMARK SMILES IDX 7 1 3 2 6 3 8 4 24 5 9 6 22 7 10 8 21 9 11 10 20 11 19 12
REMARK SMILES IDX 12 13 18 14 15 15 13 16 17 17 16 18 14 19 23 20 2 22 1 23
REMARK SMILES IDX 4 24 5 25
REMARK H PARENT 16 21
ROOT
ATOM      1  O   UNL     1      88.884 111.707  79.527  1.00  0.00    -0.274 OA
ATOM      2  N   UNL     1      87.422 111.421  81.261  1.00  0.00    -0.343 N 
ATOM      3  C   UNL     1      88.427 110.964  80.407  1.00  0.00     0.230 C 
ENDROOT
BRANCH   3   4
ATOM      4  C   UNL     1      89.011 109.544  80.510  1.00  0.00     0.116 C 
ATOM      5  C   UNL     1      90.500 109.556  80.907  1.00  0.00     0.102 C 
ATOM      6  C   UNL     1      88.717 108.698  79.298  1.00  0.00    -0.007 C 
ATOM      7  N   UNL     1      91.164 108.238  80.852  1.00  0.00    -0.298 NA
ATOM      8  C   UNL     1      89.639 107.843  78.822  1.00  0.00    -0.026 C 
ATOM      9  C   UNL     1      91.007 107.600  79.519  1.00  0.00     0.091 C 
ATOM     10  C   UNL     1      89.475 107.180  77.511  1.00  0.00    -0.011 A 
ATOM     11  C   UNL     1      92.219 107.965  78.584  1.00  0.00     0.061 C 
ATOM     12  C   UNL     1      90.691 107.012  76.828  1.00  0.00     0.010 A 
ATOM     13  C   UNL     1      88.306 106.758  76.876  1.00  0.00     0.009 A 
ATOM     14  C   UNL     1      92.006 107.350  77.236  1.00  0.00    -0.020 A 
ATOM     15  C   UNL     1      90.745 106.445  75.567  1.00  0.00     0.046 A 
ATOM     16  C   UNL     1      88.369 106.179  75.599  1.00  0.00     0.003 A 
ATOM     17  C   UNL     1      92.849 106.989  76.210  1.00  0.00     0.087 A 
ATOM     18  N   UNL     1      92.076 106.442  75.207  1.00  0.00    -0.361 N 
ATOM     19  C   UNL     1      89.587 106.012  74.916  1.00  0.00     0.027 A 
ATOM     20  C   UNL     1      90.676 107.356  81.917  1.00  0.00     0.106 C 
ATOM     21  H   UNL     1      92.431 106.085  74.331  1.00  0.00     0.166 HD
ENDBRANCH   3   4
BRANCH   2  22
ATOM     22  C   UNL     1      87.010 112.821  81.100  1.00  0.00     0.116 C 
ATOM     23  C   UNL     1      85.894 112.979  80.077  1.00  0.00     0.027 C 
ENDBRANCH   2  22
BRANCH   2  24
ATOM     24  C   UNL     1      86.905 110.722  82.447  1.00  0.00     0.116 C 
ATOM     25  C   UNL     1      87.716 111.008  83.704  1.00  0.00     0.027 C 
ENDBRANCH   2  24
TORSDOF 3
ENDMDL
MODEL 6
REMARK VINA RESULT:    -6.775      2.224      6.681
REMARK INTER + INTRA:          -8.360
REMARK INTER:                  -8.942
REMARK INTRA:                   0.582
REMARK UNBOUND:                -0.396
REMARK SMILES CCN(CC)C(=O)[C@@H]1C=C2c3cccc4[nH]cc(c34)C[C@H]2N(C)C1
REMARK SMILES IDX 7 1 3 2 6 3 8 4 24 5 9 6 22 7 10 8 21 9 11 10 20 11 19 12
REMARK SMILES IDX 12 13 18 14 15 15 13 16 17 17 16 18 14 19 23 20 2 22 1 23
REMARK SMILES IDX 4 24 5 25
REMARK H PARENT 16 21
ROOT
ATOM      1  O   UNL     1      89.603 110.516  81.840  1.00  0.00    -0.274 OA
ATOM      2  N   UNL     1      90.799 108.614  82.265  1.00  0.00    -0.343 N 
ATOM      3  C   UNL     1      89.972 109.396  81.458  1.00  0.00     0.230 C 
ENDROOT
BRANCH   3   4
ATOM      4  C   UNL     1      89.482 108.921  80.078  1.00  0.00     0.116 C 
ATOM      5  C   UNL     1      89.768 107.425  79.845  1.00  0.00     0.102 C 
ATOM      6  C   UNL     1      89.950 109.806  78.952  1.00  0.00    -0.007 C 
ATOM      7  N   UNL     1      89.483 106.948  78.476  1.00  0.00    -0.298 NA
ATOM      8  C   UNL     1      90.313 109.276  77.771  1.00  0.00    -0.026 C 
ATOM      9  C   UNL     1      90.195 107.759  77.454  1.00  0.00     0.091 C 
ATOM     10  C   UNL     1      90.993 110.083  76.737  1.00  0.00    -0.011 A 
ATOM     11  C   UNL     1      91.591 107.117  77.113  1.00  0.00     0.061 C 
ATOM     12  C   UNL     1      91.949 109.350  76.013  1.00  0.00     0.010 A 
ATOM     13  C   UNL     1      90.841 111.436  76.432  1.00  0.00     0.009 A 
ATOM     14  C   UNL     1      92.303 107.981  76.119  1.00  0.00    -0.020 A 
ATOM     15  C   UNL     1      92.720 109.937  75.026  1.00  0.00     0.046 A 
ATOM     16  C   UNL     1      91.623 112.023  75.425  1.00  0.00     0.003 A 
ATOM     17  C   UNL     1      93.296 107.751  75.196  1.00  0.00     0.087 A 
ATOM     18  N   UNL     1      93.539 108.940  74.539  1.00  0.00    -0.361 N 
ATOM     19  C   UNL     1      92.580 111.288  74.702  1.00  0.00     0.027 A 
ATOM     20  C   UNL     1      88.041 106.923  78.216  1.00  0.00     0.106 C 
ATOM     21  H   UNL     1      94.219 109.066  73.802  1.00  0.00     0.166 HD
ENDBRANCH   3   4
BRANCH   2  22
ATOM     22  C   UNL     1      91.251 109.221  83.523  1.00  0.00     0.116 C 
ATOM     23  C   UNL     1      90.353 108.853  84.696  1.00  0.00     0.027 C 
ENDBRANCH   2  22
BRANCH   2  24
ATOM     24  C   UNL     1      91.448 107.352  81.880  1.00  0.00     0.116 C 
ATOM     25  C   UNL     1      92.952 107.495  81.684  1.00  0.00     0.027 C 
ENDBRANCH   2  24
TORSDOF 3
ENDMDL
MODEL 7
REMARK VINA RESULT:    -6.200      2.425      4.356
REMARK INTER + INTRA:          -7.683
REMARK INTER:                  -7.848
REMARK INTRA:                   0.165
REMARK UNBOUND:                -0.396
REMARK SMILES CCN(CC)C(=O)[C@@H]1C=C2c3cccc4[nH]cc(c34)C[C@H]2N(C)C1
REMARK SMILES IDX 7 1 3 2 6 3 8 4 24 5 9 6 22 7 10 8 21 9 11 10 20 11 19 12
REMARK SMILES IDX 12 13 18 14 15 15 13 16 17 17 16 18 14 19 23 20 2 22 1 23
REMARK SMILES IDX 4 24 5 25
REMARK H PARENT 16 21
ROOT
ATOM      1  O   UNL     1      93.611 108.823  71.903  1.00  0.00    -0.274 OA
ATOM      2  N   UNL     1      92.519 110.130  73.428  1.00  0.00    -0.343 N 
ATOM      3  C   UNL     1      92.929 108.891  72.936  1.00  0.00     0.230 C 
ENDROOT
BRANCH   3   4
ATOM      4  C   UNL     1      92.564 107.567  73.633  1.00  0.00     0.116 C 
ATOM      5  C   UNL     1      91.315 106.912  73.015  1.00  0.00     0.102 C 
ATOM      6  C   UNL     1      92.500 107.692  75.133  1.00  0.00    -0.007 C 
ATOM      7  N   UNL     1      90.810 105.733  73.749  1.00  0.00    -0.298 NA
ATOM      8  C   UNL     1      91.562 107.032  75.835  1.00  0.00    -0.026 C 
ATOM      9  C   UNL     1      90.555 106.046  75.180  1.00  0.00     0.091 C 
ATOM     10  C   UNL     1      91.324 107.315  77.266  1.00  0.00    -0.011 A 
ATOM     11  C   UNL     1      89.063 106.498  75.390  1.00  0.00     0.061 C 
ATOM     12  C   UNL     1      89.969 107.214  77.624  1.00  0.00     0.010 A 
ATOM     13  C   UNL     1      92.233 107.696  78.253  1.00  0.00     0.009 A 
ATOM     14  C   UNL     1      88.852 106.853  76.830  1.00  0.00    -0.020 A 
ATOM     15  C   UNL     1      89.536 107.478  78.912  1.00  0.00     0.046 A 
ATOM     16  C   UNL     1      91.787 107.957  79.557  1.00  0.00     0.003 A 
ATOM     17  C   UNL     1      87.745 106.908  77.644  1.00  0.00     0.087 A 
ATOM     18  N   UNL     1      88.171 107.286  78.901  1.00  0.00    -0.361 N 
ATOM     19  C   UNL     1      90.431 107.856  79.916  1.00  0.00     0.027 A 
ATOM     20  C   UNL     1      91.725 104.596  73.614  1.00  0.00     0.106 C 
ATOM     21  H   UNL     1      87.570 107.403  79.706  1.00  0.00     0.166 HD
ENDBRANCH   3   4
BRANCH   2  22
ATOM     22  C   UNL     1      93.000 111.314  72.706  1.00  0.00     0.116 C 
ATOM     23  C   UNL     1      91.933 111.909  71.798  1.00  0.00     0.027 C 
ENDBRANCH   2  22
BRANCH   2  24
ATOM     24  C   UNL     1      91.857 110.377  74.717  1.00  0.00     0.116 C 
ATOM     25  C   UNL     1      92.576 111.420  75.563  1.00  0.00     0.027 C 
ENDBRANCH   2  24
TORSDOF 3
ENDMDL
MODEL 8
REMARK VINA RESULT:    -5.925      3.475      7.165
REMARK INTER + INTRA:          -7.360
REMARK INTER:                  -7.177
REMARK INTRA:                  -0.183
REMARK UNBOUND:                -0.396
REMARK SMILES CCN(CC)C(=O)[C@@H]1C=C2c3cccc4[nH]cc(c34)C[C@H]2N(C)C1
REMARK SMILES IDX 7 1 3 2 6 3 8 4 24 5 9 6 22 7 10 8 21 9 11 10 20 11 19 12
REMARK SMILES IDX 12 13 18 14 15 15 13 16 17 17 16 18 14 19 23 20 2 22 1 23
REMARK SMILES IDX 4 24 5 25
REMARK H PARENT 16 21
ROOT
ATOM      1  O   UNL     1      89.446 114.267  82.672  1.00  0.00    -0.274 OA
ATOM      2  N   UNL     1      87.774 114.439  81.121  1.00  0.00    -0.343 N 
ATOM      3  C   UNL     1      88.513 113.722  82.064  1.00  0.00     0.230 C 
ENDROOT
BRANCH   3   4
ATOM      4  C   UNL     1      88.218 112.248  82.392  1.00  0.00     0.116 C 
ATOM      5  C   UNL     1      88.736 111.850  83.788  1.00  0.00     0.102 C 
ATOM      6  C   UNL     1      88.647 111.305  81.298  1.00  0.00    -0.007 C 
ATOM      7  N   UNL     1      88.641 110.407  84.093  1.00  0.00    -0.298 NA
ATOM      8  C   UNL     1      89.183 110.108  81.599  1.00  0.00    -0.026 C 
ATOM      9  C   UNL     1      89.313 109.582  83.055  1.00  0.00     0.091 C 
ATOM     10  C   UNL     1      89.826 109.268  80.567  1.00  0.00    -0.011 A 
ATOM     11  C   UNL     1      90.811 109.308  83.452  1.00  0.00     0.061 C 
ATOM     12  C   UNL     1      90.936 108.558  81.055  1.00  0.00     0.010 A 
ATOM     13  C   UNL     1      89.506 109.131  79.216  1.00  0.00     0.009 A 
ATOM     14  C   UNL     1      91.473 108.518  82.366  1.00  0.00    -0.020 A 
ATOM     15  C   UNL     1      91.696 107.744  80.234  1.00  0.00     0.046 A 
ATOM     16  C   UNL     1      90.279 108.299  78.391  1.00  0.00     0.003 A 
ATOM     17  C   UNL     1      92.565 107.681  82.327  1.00  0.00     0.087 A 
ATOM     18  N   UNL     1      92.689 107.218  81.033  1.00  0.00    -0.361 N 
ATOM     19  C   UNL     1      91.390 107.589  78.879  1.00  0.00     0.027 A 
ATOM     20  C   UNL     1      87.245 109.995  84.268  1.00  0.00     0.106 C 
ATOM     21  H   UNL     1      93.404 106.579  80.712  1.00  0.00     0.166 HD
ENDBRANCH   3   4
BRANCH   2  22
ATOM     22  C   UNL     1      88.116 115.857  80.961  1.00  0.00     0.116 C 
ATOM     23  C   UNL     1      87.381 116.499  79.792  1.00  0.00     0.027 C 
ENDBRANCH   2  22
BRANCH   2  24
ATOM     24  C   UNL     1      86.547 113.983  80.451  1.00  0.00     0.116 C 
ATOM     25  C   UNL     1      86.823 113.236  79.154  1.00  0.00     0.027 C 
ENDBRANCH   2  24
TORSDOF 3
ENDMDL
MODEL 9
REMARK VINA RESULT:    -5.738      2.497      4.216
REMARK INTER + INTRA:          -7.140
REMARK INTER:                  -7.422
REMARK INTRA:                   0.281
REMARK UNBOUND:                -0.396
REMARK SMILES CCN(CC)C(=O)[C@@H]1C=C2c3cccc4[nH]cc(c34)C[C@H]2N(C)C1
REMARK SMILES IDX 7 1 3 2 6 3 8 4 24 5 9 6 22 7 10 8 21 9 11 10 20 11 19 12
REMARK SMILES IDX 12 13 18 14 15 15 13 16 17 17 16 18 14 19 23 20 2 22 1 23
REMARK SMILES IDX 4 24 5 25
REMARK H PARENT 16 21
ROOT
ATOM      1  O   UNL     1      94.065 111.592  74.577  1.00  0.00    -0.274 OA
ATOM      2  N   UNL     1      93.384 109.628  73.623  1.00  0.00    -0.343 N 
ATOM      3  C   UNL     1      93.160 110.762  74.405  1.00  0.00     0.230 C 
ENDROOT
BRANCH   3   4
ATOM      4  C   UNL     1      91.806 111.039  75.083  1.00  0.00     0.116 C 
ATOM      5  C   UNL     1      91.943 111.996  76.282  1.00  0.00     0.102 C 
ATOM      6  C   UNL     1      91.040 109.781  75.400  1.00  0.00    -0.007 C 
ATOM      7  N   UNL     1      90.712 112.163  77.082  1.00  0.00    -0.298 NA
ATOM      8  C   UNL     1      90.330 109.681  76.538  1.00  0.00    -0.026 C 
ATOM      9  C   UNL     1      90.176 110.856  77.543  1.00  0.00     0.091 C 
ATOM     10  C   UNL     1      89.768 108.391  76.988  1.00  0.00    -0.011 A 
ATOM     11  C   UNL     1      90.746 110.495  78.965  1.00  0.00     0.061 C 
ATOM     12  C   UNL     1      89.788 108.244  78.385  1.00  0.00     0.010 A 
ATOM     13  C   UNL     1      89.279 107.328  76.227  1.00  0.00     0.009 A 
ATOM     14  C   UNL     1      90.227 109.153  79.380  1.00  0.00    -0.020 A 
ATOM     15  C   UNL     1      89.339 107.089  79.001  1.00  0.00     0.046 A 
ATOM     16  C   UNL     1      88.820 106.162  76.859  1.00  0.00     0.003 A 
ATOM     17  C   UNL     1      90.047 108.536  80.596  1.00  0.00     0.087 A 
ATOM     18  N   UNL     1      89.507 107.289  80.355  1.00  0.00    -0.361 N 
ATOM     19  C   UNL     1      88.841 106.016  78.258  1.00  0.00     0.027 A 
ATOM     20  C   UNL     1      89.697 112.914  76.337  1.00  0.00     0.106 C 
ATOM     21  H   UNL     1      89.265 106.615  81.068  1.00  0.00     0.166 HD
ENDBRANCH   3   4
BRANCH   2  22
ATOM     22  C   UNL     1      94.698 109.528  72.976  1.00  0.00     0.116 C 
ATOM     23  C   UNL     1      94.599 109.583  71.458  1.00  0.00     0.027 C 
ENDBRANCH   2  22
BRANCH   2  24
ATOM     24  C   UNL     1      92.371 108.653  73.196  1.00  0.00     0.116 C 
ATOM     25  C   UNL     1      92.543 107.291  73.855  1.00  0.00     0.027 C 
ENDBRANCH   2  24
TORSDOF 3
ENDMDL
MODEL 10
REMARK VINA RESULT:    -5.362      2.378      3.320
REMARK INTER + INTRA:          -6.699
REMARK INTER:                  -6.313
REMARK INTRA:                  -0.385
REMARK UNBOUND:                -0.396
REMARK SMILES CCN(CC)C(=O)[C@@H]1C=C2c3cccc4[nH]cc(c34)C[C@H]2N(C)C1
REMARK SMILES IDX 7 1 3 2 6 3 8 4 24 5 9 6 22 7 10 8 21 9 11 10 20 11 19 12
REMARK SMILES IDX 12 13 18 14 15 15 13 16 17 17 16 18 14 19 23 20 2 22 1 23
REMARK SMILES IDX 4 24 5 25
REMARK H PARENT 16 21
ROOT
ATOM      1  O   UNL     1      90.117 111.754  76.008  1.00  0.00    -0.274 OA
ATOM      2  N   UNL     1      91.906 110.645  75.113  1.00  0.00    -0.343 N 
ATOM      3  C   UNL     1      90.990 110.884  76.139  1.00  0.00     0.230 C 
ENDROOT
BRANCH   3   4
ATOM      4  C   UNL     1      91.014 110.098  77.462  1.00  0.00     0.116 C 
ATOM      5  C   UNL     1      90.135 108.834  77.401  1.00  0.00     0.102 C 
ATOM      6  C   UNL     1      90.742 110.963  78.665  1.00  0.00    -0.007 C 
ATOM      7  N   UNL     1      89.975 108.131  78.690  1.00  0.00    -0.298 NA
ATOM      8  C   UNL     1      90.006 110.498  79.690  1.00  0.00    -0.026 C 
ATOM      9  C   UNL     1      89.470 109.041  79.752  1.00  0.00     0.091 C 
ATOM     10  C   UNL     1      89.527 111.391  80.766  1.00  0.00    -0.011 A 
ATOM     11  C   UNL     1      87.899 108.992  79.821  1.00  0.00     0.061 C 
ATOM     12  C   UNL     1      88.253 111.036  81.242  1.00  0.00     0.010 A 
ATOM     13  C   UNL     1      90.138 112.519  81.314  1.00  0.00     0.009 A 
ATOM     14  C   UNL     1      87.420 109.954  80.864  1.00  0.00    -0.020 A 
ATOM     15  C   UNL     1      87.615 111.772  82.225  1.00  0.00     0.046 A 
ATOM     16  C   UNL     1      89.486 113.257  82.314  1.00  0.00     0.003 A 
ATOM     17  C   UNL     1      86.274 110.047  81.619  1.00  0.00     0.087 A 
ATOM     18  N   UNL     1      86.403 111.149  82.439  1.00  0.00    -0.361 N 
ATOM     19  C   UNL     1      88.211 112.902  82.790  1.00  0.00     0.027 A 
ATOM     20  C   UNL     1      91.227 107.489  79.100  1.00  0.00     0.106 C 
ATOM     21  H   UNL     1      85.711 111.458  83.108  1.00  0.00     0.166 HD
ENDBRANCH   3   4
BRANCH   2  22
ATOM     22  C   UNL     1      91.721 111.416  73.877  1.00  0.00     0.116 C 
ATOM     23  C   UNL     1      92.958 111.388  72.991  1.00  0.00     0.027 C 
ENDBRANCH   2  22
BRANCH   2  24
ATOM     24  C   UNL     1      92.879 109.545  75.057  1.00  0.00     0.116 C 
ATOM     25  C   UNL     1      92.277 108.247  74.536  1.00  0.00     0.027 C 
ENDBRANCH   2  24
TORSDOF 3
ENDMDL
MODEL 11
REMARK VINA RESULT:    -5.334      2.445      7.152
REMARK INTER + INTRA:          -6.665
REMARK INTER:                  -6.474
REMARK INTRA:                  -0.191
REMARK UNBOUND:                -0.396
REMARK SMILES CCN(CC)C(=O)[C@@H]1C=C2c3cccc4[nH]cc(c34)C[C@H]2N(C)C1
REMARK SMILES IDX 7 1 3 2 6 3 8 4 24 5 9 6 22 7 10 8 21 9 11 10 20 11 19 12
REMARK SMILES IDX 12 13 18 14 15 15 13 16 17 17 16 18 14 19 23 20 2 22 1 23
REMARK SMILES IDX 4 24 5 25
REMARK H PARENT 16 21
ROOT
ATOM      1  O   UNL     1      91.025 107.369  82.864  1.00  0.00    -0.274 OA
ATOM      2  N   UNL     1      90.236 109.181  84.013  1.00  0.00    -0.343 N 
ATOM      3  C   UNL     1      90.564 108.519  82.830  1.00  0.00     0.230 C 
ENDROOT
BRANCH   3   4
ATOM      4  C   UNL     1      90.376 109.166  81.446  1.00  0.00     0.116 C 
ATOM      5  C   UNL     1      88.893 109.438  81.130  1.00  0.00     0.102 C 
ATOM      6  C   UNL     1      91.101 108.430  80.349  1.00  0.00    -0.007 C 
ATOM      7  N   UNL     1      88.630 109.895  79.750  1.00  0.00    -0.298 NA
ATOM      8  C   UNL     1      90.546 108.298  79.131  1.00  0.00    -0.026 C 
ATOM      9  C   UNL     1      89.192 108.955  78.744  1.00  0.00     0.091 C 
ATOM     10  C   UNL     1      91.117 107.389  78.116  1.00  0.00    -0.011 A 
ATOM     11  C   UNL     1      88.116 107.887  78.324  1.00  0.00     0.061 C 
ATOM     12  C   UNL     1      90.135 106.770  77.324  1.00  0.00     0.010 A 
ATOM     13  C   UNL     1      92.451 107.052  77.883  1.00  0.00     0.009 A 
ATOM     14  C   UNL     1      88.727 106.927  77.350  1.00  0.00    -0.020 A 
ATOM     15  C   UNL     1      90.466 105.854  76.340  1.00  0.00     0.046 A 
ATOM     16  C   UNL     1      92.778 106.127  76.880  1.00  0.00     0.003 A 
ATOM     17  C   UNL     1      88.212 106.096  76.382  1.00  0.00     0.087 A 
ATOM     18  N   UNL     1      89.273 105.454  75.777  1.00  0.00    -0.361 N 
ATOM     19  C   UNL     1      91.795 105.507  76.089  1.00  0.00     0.027 A 
ATOM     20  C   UNL     1      89.136 111.255  79.539  1.00  0.00     0.106 C 
ATOM     21  H   UNL     1      89.191 104.785  75.023  1.00  0.00     0.166 HD
ENDBRANCH   3   4
BRANCH   2  22
ATOM     22  C   UNL     1      90.397 108.418  85.257  1.00  0.00     0.116 C 
ATOM     23  C   UNL     1      91.275 109.142  86.268  1.00  0.00     0.027 C 
ENDBRANCH   2  22
BRANCH   2  24
ATOM     24  C   UNL     1      89.532 110.467  84.123  1.00  0.00     0.116 C 
ATOM     25  C   UNL     1      88.107 110.320  84.639  1.00  0.00     0.027 C 
ENDBRANCH   2  24
TORSDOF 3
ENDMDL
MODEL 12
REMARK VINA RESULT:    -5.275      2.546      7.542
REMARK INTER + INTRA:          -6.597
REMARK INTER:                  -6.686
REMARK INTRA:                   0.090
REMARK UNBOUND:                -0.396
REMARK SMILES CCN(CC)C(=O)[C@@H]1C=C2c3cccc4[nH]cc(c34)C[C@H]2N(C)C1
REMARK SMILES IDX 7 1 3 2 6 3 8 4 24 5 9 6 22 7 10 8 21 9 11 10 20 11 19 12
REMARK SMILES IDX 12 13 18 14 15 15 13 16 17 17 16 18 14 19 23 20 2 22 1 23
REMARK SMILES IDX 4 24 5 25
REMARK H PARENT 16 21
ROOT
ATOM      1  O   UNL     1      90.181 112.099  77.372  1.00  0.00    -0.274 OA
ATOM      2  N   UNL     1      90.041 110.080  78.437  1.00  0.00    -0.343 N 
ATOM      3  C   UNL     1      90.633 110.955  77.525  1.00  0.00     0.230 C 
ENDROOT
BRANCH   3   4
ATOM      4  C   UNL     1      91.855 110.556  76.678  1.00  0.00     0.116 C 
ATOM      5  C   UNL     1      92.058 111.497  75.475  1.00  0.00     0.102 C 
ATOM      6  C   UNL     1      91.862 109.095  76.309  1.00  0.00    -0.007 C 
ATOM      7  N   UNL     1      93.105 111.067  74.525  1.00  0.00    -0.298 NA
ATOM      8  C   UNL     1      92.286 108.699  75.096  1.00  0.00    -0.026 C 
ATOM      9  C   UNL     1      92.871 109.680  74.042  1.00  0.00     0.091 C 
ATOM     10  C   UNL     1      92.085 107.314  74.621  1.00  0.00    -0.011 A 
ATOM     11  C   UNL     1      92.028 109.692  72.714  1.00  0.00     0.061 C 
ATOM     12  C   UNL     1      91.824 107.242  73.242  1.00  0.00     0.010 A 
ATOM     13  C   UNL     1      92.081 106.123  75.348  1.00  0.00     0.009 A 
ATOM     14  C   UNL     1      91.768 108.282  72.281  1.00  0.00    -0.020 A 
ATOM     15  C   UNL     1      91.572 106.036  72.612  1.00  0.00     0.046 A 
ATOM     16  C   UNL     1      91.829 104.904  74.702  1.00  0.00     0.003 A 
ATOM     17  C   UNL     1      91.473 107.697  71.072  1.00  0.00     0.087 A 
ATOM     18  N   UNL     1      91.358 106.338  71.284  1.00  0.00    -0.361 N 
ATOM     19  C   UNL     1      91.567 104.833  73.322  1.00  0.00     0.027 A 
ATOM     20  C   UNL     1      94.440 111.200  75.115  1.00  0.00     0.106 C 
ATOM     21  H   UNL     1      91.150 105.655  70.568  1.00  0.00     0.166 HD
ENDBRANCH   3   4
BRANCH   2  22
ATOM     22  C   UNL     1      88.930 110.616  79.233  1.00  0.00     0.116 C 
ATOM     23  C   UNL     1      89.385 111.114  80.597  1.00  0.00     0.027 C 
ENDBRANCH   2  22
BRANCH   2  24
ATOM     24  C   UNL     1      90.562 108.768  78.846  1.00  0.00     0.116 C 
ATOM     25  C   UNL     1      89.507 107.670  78.799  1.00  0.00     0.027 C 
ENDBRANCH   2  24
TORSDOF 3
ENDMDL
