MODEL 1
REMARK VINA RESULT:    -7.393      0.000      0.000
REMARK INTER + INTRA:          -8.772
REMARK INTER:                  -8.690
REMARK INTRA:                  -0.082
REMARK UNBOUND:                -0.082
REMARK SMILES CCN(CC)C(=O)[C@@H]1C=C2c3cccc4[nH]cc(c34)C[C@H]2N(C)C1
REMARK SMILES IDX 7 1 3 2 6 3 8 4 24 5 9 6 22 7 10 8 21 9 11 10 20 11 19 12
REMARK SMILES IDX 12 13 18 14 15 15 13 16 17 17 16 18 14 19 23 20 2 22 1 23
REMARK SMILES IDX 4 24 5 25
REMARK H PARENT 16 21
ROOT
ATOM      1  O   UNL     1      93.406 130.784 122.228  1.00  0.00    -0.274 OA
ATOM      2  N   UNL     1      92.868 128.821 123.270  1.00  0.00    -0.343 N 
ATOM      3  C   UNL     1      93.791 129.724 122.740  1.00  0.00     0.230 C 
ENDROOT
BRANCH   3   4
ATOM      4  C   UNL     1      95.307 129.457 122.763  1.00  0.00     0.116 C 
ATOM      5  C   UNL     1      96.116 130.665 122.253  1.00  0.00     0.102 C 
ATOM      6  C   UNL     1      95.685 128.157 122.102  1.00  0.00    -0.007 C 
ATOM      7  N   UNL     1      97.561 130.413 122.085  1.00  0.00    -0.298 NA
ATOM      8  C   UNL     1      96.804 128.066 121.362  1.00  0.00    -0.026 C 
ATOM      9  C   UNL     1      97.815 129.237 121.211  1.00  0.00     0.091 C 
ATOM     10  C   UNL     1      97.078 126.886 120.515  1.00  0.00    -0.011 A 
ATOM     11  C   UNL     1      97.977 129.687 119.711  1.00  0.00     0.061 C 
ATOM     12  C   UNL     1      97.733 127.216 119.316  1.00  0.00     0.010 A 
ATOM     13  C   UNL     1      96.742 125.549 120.729  1.00  0.00     0.009 A 
ATOM     14  C   UNL     1      98.181 128.478 118.852  1.00  0.00    -0.020 A 
ATOM     15  C   UNL     1      98.045 126.254 118.371  1.00  0.00     0.046 A 
ATOM     16  C   UNL     1      97.066 124.580 119.768  1.00  0.00     0.003 A 
ATOM     17  C   UNL     1      98.755 128.272 117.619  1.00  0.00     0.087 A 
ATOM     18  N   UNL     1      98.669 126.923 117.339  1.00  0.00    -0.361 N 
ATOM     19  C   UNL     1      97.722 124.910 118.568  1.00  0.00     0.027 A 
ATOM     20  C   UNL     1      98.225 130.256 123.382  1.00  0.00     0.106 C 
ATOM     21  H   UNL     1      99.016 126.483 116.498  1.00  0.00     0.166 HD
ENDBRANCH   3   4
BRANCH   2  22
ATOM     22  C   UNL     1      91.459 129.236 123.248  1.00  0.00     0.116 C 
ATOM     23  C   UNL     1      90.841 129.104 121.863  1.00  0.00     0.027 C 
ENDBRANCH   2  22
BRANCH   2  24
ATOM     24  C   UNL     1      93.181 127.615 124.050  1.00  0.00     0.116 C 
ATOM     25  C   UNL     1      92.782 126.329 123.339  1.00  0.00     0.027 C 
ENDBRANCH   2  24
TORSDOF 3
ENDMDL
MODEL 2
REMARK VINA RESULT:    -6.805      1.100      1.762
REMARK INTER + INTRA:          -8.080
REMARK INTER:                  -8.075
REMARK INTRA:                  -0.005
REMARK UNBOUND:                -0.082
REMARK SMILES CCN(CC)C(=O)[C@@H]1C=C2c3cccc4[nH]cc(c34)C[C@H]2N(C)C1
REMARK SMILES IDX 7 1 3 2 6 3 8 4 24 5 9 6 22 7 10 8 21 9 11 10 20 11 19 12
REMARK SMILES IDX 12 13 18 14 15 15 13 16 17 17 16 18 14 19 23 20 2 22 1 23
REMARK SMILES IDX 4 24 5 25
REMARK H PARENT 16 21
ROOT
ATOM      1  O   UNL     1      92.939 128.657 121.861  1.00  0.00    -0.274 OA
ATOM      2  N   UNL     1      92.906 130.284 123.468  1.00  0.00    -0.343 N 
ATOM      3  C   UNL     1      93.573 129.364 122.658  1.00  0.00     0.230 C 
ENDROOT
BRANCH   3   4
ATOM      4  C   UNL     1      95.100 129.179 122.709  1.00  0.00     0.116 C 
ATOM      5  C   UNL     1      95.852 130.431 122.218  1.00  0.00     0.102 C 
ATOM      6  C   UNL     1      95.559 127.903 122.053  1.00  0.00    -0.007 C 
ATOM      7  N   UNL     1      97.312 130.257 122.076  1.00  0.00    -0.298 NA
ATOM      8  C   UNL     1      96.696 127.875 121.335  1.00  0.00    -0.026 C 
ATOM      9  C   UNL     1      97.645 129.099 121.205  1.00  0.00     0.091 C 
ATOM     10  C   UNL     1      97.049 126.714 120.490  1.00  0.00    -0.011 A 
ATOM     11  C   UNL     1      97.811 129.561 119.710  1.00  0.00     0.061 C 
ATOM     12  C   UNL     1      97.708 127.082 119.305  1.00  0.00     0.010 A 
ATOM     13  C   UNL     1      96.782 125.360 120.695  1.00  0.00     0.009 A 
ATOM     14  C   UNL     1      98.096 128.368 118.852  1.00  0.00    -0.020 A 
ATOM     15  C   UNL     1      98.088 126.141 118.363  1.00  0.00     0.046 A 
ATOM     16  C   UNL     1      97.175 124.412 119.738  1.00  0.00     0.003 A 
ATOM     17  C   UNL     1      98.704 128.197 117.630  1.00  0.00     0.087 A 
ATOM     18  N   UNL     1      98.695 126.846 117.346  1.00  0.00    -0.361 N 
ATOM     19  C   UNL     1      97.834 124.781 118.552  1.00  0.00     0.027 A 
ATOM     20  C   UNL     1      97.959 130.131 123.386  1.00  0.00     0.106 C 
ATOM     21  H   UNL     1      99.082 126.428 116.510  1.00  0.00     0.166 HD
ENDBRANCH   3   4
BRANCH   2  22
ATOM     22  C   UNL     1      91.457 130.409 123.263  1.00  0.00     0.116 C 
ATOM     23  C   UNL     1      90.743 130.938 124.498  1.00  0.00     0.027 C 
ENDBRANCH   2  22
BRANCH   2  24
ATOM     24  C   UNL     1      93.532 131.297 124.329  1.00  0.00     0.116 C 
ATOM     25  C   UNL     1      93.625 132.665 123.665  1.00  0.00     0.027 C 
ENDBRANCH   2  24
TORSDOF 3
ENDMDL
MODEL 3
REMARK VINA RESULT:    -6.506      6.366      8.711
REMARK INTER + INTRA:          -7.729
REMARK INTER:                  -7.297
REMARK INTRA:                  -0.432
REMARK UNBOUND:                -0.082
REMARK SMILES CCN(CC)C(=O)[C@@H]1C=C2c3cccc4[nH]cc(c34)C[C@H]2N(C)C1
REMARK SMILES IDX 7 1 3 2 6 3 8 4 24 5 9 6 22 7 10 8 21 9 11 10 20 11 19 12
REMARK SMILES IDX 12 13 18 14 15 15 13 16 17 17 16 18 14 19 23 20 2 22 1 23
REMARK SMILES IDX 4 24 5 25
REMARK H PARENT 16 21
ROOT
ATOM      1  O   UNL     1      99.324 120.508 117.625  1.00  0.00    -0.274 OA
ATOM      2  N   UNL     1      97.155 121.073 118.077  1.00  0.00    -0.343 N 
ATOM      3  C   UNL     1      98.326 121.179 117.325  1.00  0.00     0.230 C 
ENDROOT
BRANCH   3   4
ATOM      4  C   UNL     1      98.441 122.116 116.109  1.00  0.00     0.116 C 
ATOM      5  C   UNL     1      99.480 121.615 115.088  1.00  0.00     0.102 C 
ATOM      6  C   UNL     1      98.625 123.561 116.497  1.00  0.00    -0.007 C 
ATOM      7  N   UNL     1      99.764 122.557 113.986  1.00  0.00    -0.298 NA
ATOM      8  C   UNL     1      99.442 124.360 115.788  1.00  0.00    -0.026 C 
ATOM      9  C   UNL     1     100.170 123.893 114.496  1.00  0.00     0.091 C 
ATOM     10  C   UNL     1      99.825 125.702 116.274  1.00  0.00    -0.011 A 
ATOM     11  C   UNL     1     101.735 123.980 114.636  1.00  0.00     0.061 C 
ATOM     12  C   UNL     1     101.146 126.047 115.942  1.00  0.00     0.010 A 
ATOM     13  C   UNL     1      99.083 126.612 117.027  1.00  0.00     0.009 A 
ATOM     14  C   UNL     1     102.107 125.317 115.199  1.00  0.00    -0.020 A 
ATOM     15  C   UNL     1     101.706 127.248 116.340  1.00  0.00     0.046 A 
ATOM     16  C   UNL     1      99.655 127.831 117.423  1.00  0.00     0.003 A 
ATOM     17  C   UNL     1     103.249 126.082 115.158  1.00  0.00     0.087 A 
ATOM     18  N   UNL     1     102.994 127.249 115.850  1.00  0.00    -0.361 N 
ATOM     19  C   UNL     1     100.978 128.175 117.090  1.00  0.00     0.027 A 
ATOM     20  C   UNL     1      98.620 122.667 113.076  1.00  0.00     0.106 C 
ATOM     21  H   UNL     1     103.656 128.002 115.980  1.00  0.00     0.166 HD
ENDBRANCH   3   4
BRANCH   2  22
ATOM     22  C   UNL     1      97.160 120.087 119.163  1.00  0.00     0.116 C 
ATOM     23  C   UNL     1      96.015 119.091 119.044  1.00  0.00     0.027 C 
ENDBRANCH   2  22
BRANCH   2  24
ATOM     24  C   UNL     1      95.854 121.672 117.746  1.00  0.00     0.116 C 
ATOM     25  C   UNL     1      95.319 122.574 118.850  1.00  0.00     0.027 C 
ENDBRANCH   2  24
TORSDOF 3
ENDMDL
MODEL 4
REMARK VINA RESULT:    -6.476      2.733      5.447
REMARK INTER + INTRA:          -7.693
REMARK INTER:                  -7.704
REMARK INTRA:                   0.010
REMARK UNBOUND:                -0.082
REMARK SMILES CCN(CC)C(=O)[C@@H]1C=C2c3cccc4[nH]cc(c34)C[C@H]2N(C)C1
REMARK SMILES IDX 7 1 3 2 6 3 8 4 24 5 9 6 22 7 10 8 21 9 11 10 20 11 19 12
REMARK SMILES IDX 12 13 18 14 15 15 13 16 17 17 16 18 14 19 23 20 2 22 1 23
REMARK SMILES IDX 4 24 5 25
REMARK H PARENT 16 21
ROOT
ATOM      1  O   UNL     1      95.643 127.221 121.495  1.00  0.00    -0.274 OA
ATOM      2  N   UNL     1      96.700 129.157 120.892  1.00  0.00    -0.343 N 
ATOM      3  C   UNL     1      96.543 127.771 120.844  1.00  0.00     0.230 C 
ENDROOT
BRANCH   3   4
ATOM      4  C   UNL     1      97.459 126.868 119.998  1.00  0.00     0.116 C 
ATOM      5  C   UNL     1      97.188 127.019 118.489  1.00  0.00     0.102 C 
ATOM      6  C   UNL     1      97.469 125.437 120.468  1.00  0.00    -0.007 C 
ATOM      7  N   UNL     1      97.910 126.055 117.633  1.00  0.00    -0.298 NA
ATOM      8  C   UNL     1      97.516 124.426 119.582  1.00  0.00    -0.026 C 
ATOM      9  C   UNL     1      97.650 124.652 118.050  1.00  0.00     0.091 C 
ATOM     10  C   UNL     1      97.290 123.025 119.993  1.00  0.00    -0.011 A 
ATOM     11  C   UNL     1      96.430 124.055 117.256  1.00  0.00     0.061 C 
ATOM     12  C   UNL     1      96.610 122.273 119.020  1.00  0.00     0.010 A 
ATOM     13  C   UNL     1      97.617 122.395 121.194  1.00  0.00     0.009 A 
ATOM     14  C   UNL     1      96.164 122.661 117.732  1.00  0.00    -0.020 A 
ATOM     15  C   UNL     1      96.270 120.948 119.232  1.00  0.00     0.046 A 
ATOM     16  C   UNL     1      97.274 121.049 121.399  1.00  0.00     0.003 A 
ATOM     17  C   UNL     1      95.548 121.565 117.173  1.00  0.00     0.087 A 
ATOM     18  N   UNL     1      95.620 120.535 118.089  1.00  0.00    -0.361 N 
ATOM     19  C   UNL     1      96.593 120.298 120.425  1.00  0.00     0.027 A 
ATOM     20  C   UNL     1      99.347 126.340 117.612  1.00  0.00     0.106 C 
ATOM     21  H   UNL     1      95.252 119.605 117.944  1.00  0.00     0.166 HD
ENDBRANCH   3   4
BRANCH   2  22
ATOM     22  C   UNL     1      95.711 129.902 121.680  1.00  0.00     0.116 C 
ATOM     23  C   UNL     1      96.035 129.896 123.167  1.00  0.00     0.027 C 
ENDBRANCH   2  22
BRANCH   2  24
ATOM     24  C   UNL     1      97.603 129.958 120.053  1.00  0.00     0.116 C 
ATOM     25  C   UNL     1      98.076 131.232 120.741  1.00  0.00     0.027 C 
ENDBRANCH   2  24
TORSDOF 3
ENDMDL
MODEL 5
REMARK VINA RESULT:    -6.419      4.471      7.101
REMARK INTER + INTRA:          -7.626
REMARK INTER:                  -7.177
REMARK INTRA:                  -0.449
REMARK UNBOUND:                -0.082
REMARK SMILES CCN(CC)C(=O)[C@@H]1C=C2c3cccc4[nH]cc(c34)C[C@H]2N(C)C1
REMARK SMILES IDX 7 1 3 2 6 3 8 4 24 5 9 6 22 7 10 8 21 9 11 10 20 11 19 12
REMARK SMILES IDX 12 13 18 14 15 15 13 16 17 17 16 18 14 19 23 20 2 22 1 23
REMARK SMILES IDX 4 24 5 25
REMARK H PARENT 16 21
ROOT
ATOM      1  O   UNL     1      98.091 128.619 117.079  1.00  0.00    -0.274 OA
ATOM      2  N   UNL     1      97.916 127.305 118.942  1.00  0.00    -0.343 N 
ATOM      3  C   UNL     1      98.587 127.740 117.798  1.00  0.00     0.230 C 
ENDROOT
BRANCH   3   4
ATOM      4  C   UNL     1      99.950 127.164 117.375  1.00  0.00     0.116 C 
ATOM      5  C   UNL     1     100.681 128.080 116.374  1.00  0.00     0.102 C 
ATOM      6  C   UNL     1      99.868 125.727 116.929  1.00  0.00    -0.007 C 
ATOM      7  N   UNL     1     101.912 127.502 115.796  1.00  0.00    -0.298 NA
ATOM      8  C   UNL     1     100.613 125.287 115.899  1.00  0.00    -0.026 C 
ATOM      9  C   UNL     1     101.655 126.180 115.168  1.00  0.00     0.091 C 
ATOM     10  C   UNL     1     100.384 123.961 115.290  1.00  0.00    -0.011 A 
ATOM     11  C   UNL     1     101.319 126.348 113.640  1.00  0.00     0.061 C 
ATOM     12  C   UNL     1     100.595 123.954 113.900  1.00  0.00     0.010 A 
ATOM     13  C   UNL     1      99.961 122.775 115.891  1.00  0.00     0.009 A 
ATOM     14  C   UNL     1     101.018 125.006 113.049  1.00  0.00    -0.020 A 
ATOM     15  C   UNL     1     100.396 122.815 113.141  1.00  0.00     0.046 A 
ATOM     16  C   UNL     1      99.767 121.622 115.115  1.00  0.00     0.003 A 
ATOM     17  C   UNL     1     101.065 124.495 111.773  1.00  0.00     0.087 A 
ATOM     18  N   UNL     1     100.688 123.169 111.841  1.00  0.00    -0.361 N 
ATOM     19  C   UNL     1      99.977 121.617 113.724  1.00  0.00     0.027 A 
ATOM     20  C   UNL     1     102.975 127.410 116.801  1.00  0.00     0.106 C 
ATOM     21  H   UNL     1     100.636 122.540 111.050  1.00  0.00     0.166 HD
ENDBRANCH   3   4
BRANCH   2  22
ATOM     22  C   UNL     1      96.661 127.993 119.267  1.00  0.00     0.116 C 
ATOM     23  C   UNL     1      96.835 129.015 120.382  1.00  0.00     0.027 C 
ENDBRANCH   2  22
BRANCH   2  24
ATOM     24  C   UNL     1      98.451 126.402 119.972  1.00  0.00     0.116 C 
ATOM     25  C   UNL     1      97.652 125.112 120.100  1.00  0.00     0.027 C 
ENDBRANCH   2  24
TORSDOF 3
ENDMDL
MODEL 6
REMARK VINA RESULT:    -6.334      4.942      8.374
REMARK INTER + INTRA:          -7.527
REMARK INTER:                  -7.139
REMARK INTRA:                  -0.387
REMARK UNBOUND:                -0.082
REMARK SMILES CCN(CC)C(=O)[C@@H]1C=C2c3cccc4[nH]cc(c34)C[C@H]2N(C)C1
REMARK SMILES IDX 7 1 3 2 6 3 8 4 24 5 9 6 22 7 10 8 21 9 11 10 20 11 19 12
REMARK SMILES IDX 12 13 18 14 15 15 13 16 17 17 16 18 14 19 23 20 2 22 1 23
REMARK SMILES IDX 4 24 5 25
REMARK H PARENT 16 21
ROOT
ATOM      1  O   UNL     1      96.937 124.429 116.770  1.00  0.00    -0.274 OA
ATOM      2  N   UNL     1      97.457 125.725 118.581  1.00  0.00    -0.343 N 
ATOM      3  C   UNL     1      97.320 124.489 117.947  1.00  0.00     0.230 C 
ENDROOT
BRANCH   3   4
ATOM      4  C   UNL     1      97.632 123.160 118.659  1.00  0.00     0.116 C 
ATOM      5  C   UNL     1      97.856 122.007 117.662  1.00  0.00     0.102 C 
ATOM      6  C   UNL     1      96.645 122.833 119.749  1.00  0.00    -0.007 C 
ATOM      7  N   UNL     1      97.985 120.673 118.283  1.00  0.00    -0.298 NA
ATOM      8  C   UNL     1      96.246 121.564 119.951  1.00  0.00    -0.026 C 
ATOM      9  C   UNL     1      96.824 120.360 119.158  1.00  0.00     0.091 C 
ATOM     10  C   UNL     1      95.113 121.243 120.844  1.00  0.00    -0.011 A 
ATOM     11  C   UNL     1      95.711 119.596 118.349  1.00  0.00     0.061 C 
ATOM     12  C   UNL     1      94.348 120.156 120.386  1.00  0.00     0.010 A 
ATOM     13  C   UNL     1      94.701 121.884 122.013  1.00  0.00     0.009 A 
ATOM     14  C   UNL     1      94.538 119.340 119.244  1.00  0.00    -0.020 A 
ATOM     15  C   UNL     1      93.222 119.724 121.064  1.00  0.00     0.046 A 
ATOM     16  C   UNL     1      93.561 121.436 122.697  1.00  0.00     0.003 A 
ATOM     17  C   UNL     1      93.517 118.418 119.233  1.00  0.00     0.087 A 
ATOM     18  N   UNL     1      92.728 118.659 120.340  1.00  0.00    -0.361 N 
ATOM     19  C   UNL     1      92.795 120.349 122.238  1.00  0.00     0.027 A 
ATOM     20  C   UNL     1      99.246 120.552 119.020  1.00  0.00     0.106 C 
ATOM     21  H   UNL     1      91.903 118.130 120.590  1.00  0.00     0.166 HD
ENDBRANCH   3   4
BRANCH   2  22
ATOM     22  C   UNL     1      97.197 126.914 117.761  1.00  0.00     0.116 C 
ATOM     23  C   UNL     1      98.360 127.897 117.787  1.00  0.00     0.027 C 
ENDBRANCH   2  22
BRANCH   2  24
ATOM     24  C   UNL     1      98.055 125.961 119.903  1.00  0.00     0.116 C 
ATOM     25  C   UNL     1      97.095 126.630 120.877  1.00  0.00     0.027 C 
ENDBRANCH   2  24
TORSDOF 3
ENDMDL
MODEL 7
REMARK VINA RESULT:    -6.014      1.397      2.053
REMARK INTER + INTRA:          -7.151
REMARK INTER:                  -7.448
REMARK INTRA:                   0.297
REMARK UNBOUND:                -0.082
REMARK SMILES CCN(CC)C(=O)[C@@H]1C=C2c3cccc4[nH]cc(c34)C[C@H]2N(C)C1
REMARK SMILES IDX 7 1 3 2 6 3 8 4 24 5 9 6 22 7 10 8 21 9 11 10 20 11 19 12
REMARK SMILES IDX 12 13 18 14 15 15 13 16 17 17 16 18 14 19 23 20 2 22 1 23
REMARK SMILES IDX 4 24 5 25
REMARK H PARENT 16 21
ROOT
ATOM      1  O   UNL     1      93.084 128.262 122.013  1.00  0.00    -0.274 OA
ATOM      2  N   UNL     1      93.455 130.374 122.807  1.00  0.00    -0.343 N 
ATOM      3  C   UNL     1      93.894 129.107 122.419  1.00  0.00     0.230 C 
ENDROOT
BRANCH   3   4
ATOM      4  C   UNL     1      95.377 128.699 122.475  1.00  0.00     0.116 C 
ATOM      5  C   UNL     1      96.305 129.810 121.947  1.00  0.00     0.102 C 
ATOM      6  C   UNL     1      95.639 127.351 121.854  1.00  0.00    -0.007 C 
ATOM      7  N   UNL     1      97.722 129.417 121.809  1.00  0.00    -0.298 NA
ATOM      8  C   UNL     1      96.755 127.134 121.136  1.00  0.00    -0.026 C 
ATOM      9  C   UNL     1      97.874 128.199 120.971  1.00  0.00     0.091 C 
ATOM     10  C   UNL     1      96.927 125.910 120.325  1.00  0.00    -0.011 A 
ATOM     11  C   UNL     1      98.100 128.589 119.464  1.00  0.00     0.061 C 
ATOM     12  C   UNL     1      97.628 126.142 119.130  1.00  0.00     0.010 A 
ATOM     13  C   UNL     1      96.463 124.617 120.569  1.00  0.00     0.009 A 
ATOM     14  C   UNL     1      98.200 127.343 118.640  1.00  0.00    -0.020 A 
ATOM     15  C   UNL     1      97.860 125.130 118.215  1.00  0.00     0.046 A 
ATOM     16  C   UNL     1      96.706 123.595 119.639  1.00  0.00     0.003 A 
ATOM     17  C   UNL     1      98.770 127.049 117.423  1.00  0.00     0.087 A 
ATOM     18  N   UNL     1      98.559 125.708 117.177  1.00  0.00    -0.361 N 
ATOM     19  C   UNL     1      97.407 123.828 118.442  1.00  0.00     0.027 A 
ATOM     20  C   UNL     1      98.349 129.234 123.122  1.00  0.00     0.106 C 
ATOM     21  H   UNL     1      98.875 125.213 116.354  1.00  0.00     0.166 HD
ENDBRANCH   3   4
BRANCH   2  22
ATOM     22  C   UNL     1      92.024 130.653 122.632  1.00  0.00     0.116 C 
ATOM     23  C   UNL     1      91.364 131.109 123.926  1.00  0.00     0.027 C 
ENDBRANCH   2  22
BRANCH   2  24
ATOM     24  C   UNL     1      94.307 131.523 123.146  1.00  0.00     0.116 C 
ATOM     25  C   UNL     1      94.237 132.639 122.111  1.00  0.00     0.027 C 
ENDBRANCH   2  24
TORSDOF 3
ENDMDL
MODEL 8
REMARK VINA RESULT:    -5.719      5.850      9.282
REMARK INTER + INTRA:          -6.804
REMARK INTER:                  -6.954
REMARK INTRA:                   0.149
REMARK UNBOUND:                -0.082
REMARK SMILES CCN(CC)C(=O)[C@@H]1C=C2c3cccc4[nH]cc(c34)C[C@H]2N(C)C1
REMARK SMILES IDX 7 1 3 2 6 3 8 4 24 5 9 6 22 7 10 8 21 9 11 10 20 11 19 12
REMARK SMILES IDX 12 13 18 14 15 15 13 16 17 17 16 18 14 19 23 20 2 22 1 23
REMARK SMILES IDX 4 24 5 25
REMARK H PARENT 16 21
ROOT
ATOM      1  O   UNL     1     101.037 124.533 115.477  1.00  0.00    -0.274 OA
ATOM      2  N   UNL     1     100.166 122.712 114.403  1.00  0.00    -0.343 N 
ATOM      3  C   UNL     1     100.058 123.805 115.264  1.00  0.00     0.230 C 
ENDROOT
BRANCH   3   4
ATOM      4  C   UNL     1      98.743 124.158 115.983  1.00  0.00     0.116 C 
ATOM      5  C   UNL     1      98.975 125.073 117.201  1.00  0.00     0.102 C 
ATOM      6  C   UNL     1      97.898 122.948 116.290  1.00  0.00    -0.007 C 
ATOM      7  N   UNL     1      97.779 125.305 118.035  1.00  0.00    -0.298 NA
ATOM      8  C   UNL     1      97.211 122.870 117.444  1.00  0.00    -0.026 C 
ATOM      9  C   UNL     1      97.164 124.027 118.480  1.00  0.00     0.091 C 
ATOM     10  C   UNL     1      96.571 121.611 117.878  1.00  0.00    -0.011 A 
ATOM     11  C   UNL     1      97.741 123.592 119.878  1.00  0.00     0.061 C 
ATOM     12  C   UNL     1      96.614 121.428 119.271  1.00  0.00     0.010 A 
ATOM     13  C   UNL     1      95.990 120.604 117.106  1.00  0.00     0.009 A 
ATOM     14  C   UNL     1      97.140 122.280 120.274  1.00  0.00    -0.020 A 
ATOM     15  C   UNL     1      96.100 120.292 119.871  1.00  0.00     0.046 A 
ATOM     16  C   UNL     1      95.467 119.457 117.722  1.00  0.00     0.003 A 
ATOM     17  C   UNL     1      96.946 121.647 121.480  1.00  0.00     0.087 A 
ATOM     18  N   UNL     1      96.315 120.446 121.224  1.00  0.00    -0.361 N 
ATOM     19  C   UNL     1      95.511 119.275 119.116  1.00  0.00     0.027 A 
ATOM     20  C   UNL     1      96.801 126.143 117.334  1.00  0.00     0.106 C 
ATOM     21  H   UNL     1      96.044 119.773 121.928  1.00  0.00     0.166 HD
ENDBRANCH   3   4
BRANCH   2  22
ATOM     22  C   UNL     1     101.457 122.536 113.727  1.00  0.00     0.116 C 
ATOM     23  C   UNL     1     101.330 122.610 112.212  1.00  0.00     0.027 C 
ENDBRANCH   2  22
BRANCH   2  24
ATOM     24  C   UNL     1      99.061 121.867 113.928  1.00  0.00     0.116 C 
ATOM     25  C   UNL     1      99.256 120.394 114.260  1.00  0.00     0.027 C 
ENDBRANCH   2  24
TORSDOF 3
ENDMDL
MODEL 9
REMARK VINA RESULT:    -5.608      2.527      6.464
REMARK INTER + INTRA:          -6.674
REMARK INTER:                  -6.189
REMARK INTRA:                  -0.485
REMARK UNBOUND:                -0.082
REMARK SMILES CCN(CC)C(=O)[C@@H]1C=C2c3cccc4[nH]cc(c34)C[C@H]2N(C)C1
REMARK SMILES IDX 7 1 3 2 6 3 8 4 24 5 9 6 22 7 10 8 21 9 11 10 20 11 19 12
REMARK SMILES IDX 12 13 18 14 15 15 13 16 17 17 16 18 14 19 23 20 2 22 1 23
REMARK SMILES IDX 4 24 5 25
REMARK H PARENT 16 21
ROOT
ATOM      1  O   UNL     1      97.575 123.745 120.745  1.00  0.00    -0.274 OA
ATOM      2  N   UNL     1      97.022 123.202 118.594  1.00  0.00    -0.343 N 
ATOM      3  C   UNL     1      97.288 124.129 119.603  1.00  0.00     0.230 C 
ENDROOT
BRANCH   3   4
ATOM      4  C   UNL     1      97.240 125.648 119.357  1.00  0.00     0.116 C 
ATOM      5  C   UNL     1      98.648 126.269 119.291  1.00  0.00     0.102 C 
ATOM      6  C   UNL     1      96.307 126.366 120.298  1.00  0.00    -0.007 C 
ATOM      7  N   UNL     1      98.669 127.745 119.233  1.00  0.00    -0.298 NA
ATOM      8  C   UNL     1      96.628 127.578 120.786  1.00  0.00    -0.026 C 
ATOM      9  C   UNL     1      97.908 128.349 120.358  1.00  0.00     0.091 C 
ATOM     10  C   UNL     1      95.858 128.198 121.883  1.00  0.00    -0.011 A 
ATOM     11  C   UNL     1      98.859 128.637 121.578  1.00  0.00     0.061 C 
ATOM     12  C   UNL     1      96.662 128.945 122.761  1.00  0.00     0.010 A 
ATOM     13  C   UNL     1      94.495 128.104 122.168  1.00  0.00     0.009 A 
ATOM     14  C   UNL     1      98.056 129.198 122.710  1.00  0.00    -0.020 A 
ATOM     15  C   UNL     1      96.133 129.573 123.875  1.00  0.00     0.046 A 
ATOM     16  C   UNL     1      93.965 128.749 123.296  1.00  0.00     0.003 A 
ATOM     17  C   UNL     1      98.363 129.976 123.802  1.00  0.00     0.087 A 
ATOM     18  N   UNL     1      97.193 130.198 124.498  1.00  0.00    -0.361 N 
ATOM     19  C   UNL     1      94.771 129.495 124.175  1.00  0.00     0.027 A 
ATOM     20  C   UNL     1      98.171 128.230 117.942  1.00  0.00     0.106 C 
ATOM     21  H   UNL     1      97.117 130.744 125.346  1.00  0.00     0.166 HD
ENDBRANCH   3   4
BRANCH   2  22
ATOM     22  C   UNL     1      97.176 121.786 118.948  1.00  0.00     0.116 C 
ATOM     23  C   UNL     1      96.247 120.886 118.146  1.00  0.00     0.027 C 
ENDBRANCH   2  22
BRANCH   2  24
ATOM     24  C   UNL     1      96.835 123.501 117.167  1.00  0.00     0.116 C 
ATOM     25  C   UNL     1      98.147 123.557 116.396  1.00  0.00     0.027 C 
ENDBRANCH   2  24
TORSDOF 3
ENDMDL
MODEL 10
REMARK VINA RESULT:    -5.271      6.426      9.771
REMARK INTER + INTRA:          -6.278
REMARK INTER:                  -5.806
REMARK INTRA:                  -0.472
REMARK UNBOUND:                -0.082
REMARK SMILES CCN(CC)C(=O)[C@@H]1C=C2c3cccc4[nH]cc(c34)C[C@H]2N(C)C1
REMARK SMILES IDX 7 1 3 2 6 3 8 4 24 5 9 6 22 7 10 8 21 9 11 10 20 11 19 12
REMARK SMILES IDX 12 13 18 14 15 15 13 16 17 17 16 18 14 19 23 20 2 22 1 23
REMARK SMILES IDX 4 24 5 25
REMARK H PARENT 16 21
ROOT
ATOM      1  O   UNL     1     100.477 121.817 115.687  1.00  0.00    -0.274 OA
ATOM      2  N   UNL     1     100.211 123.030 113.766  1.00  0.00    -0.343 N 
ATOM      3  C   UNL     1      99.798 122.625 115.036  1.00  0.00     0.230 C 
ENDROOT
BRANCH   3   4
ATOM      4  C   UNL     1      98.504 123.147 115.686  1.00  0.00     0.116 C 
ATOM      5  C   UNL     1      98.779 124.266 116.709  1.00  0.00     0.102 C 
ATOM      6  C   UNL     1      97.628 122.044 116.221  1.00  0.00    -0.007 C 
ATOM      7  N   UNL     1      97.601 124.688 117.493  1.00  0.00    -0.298 NA
ATOM      8  C   UNL     1      96.954 122.204 117.374  1.00  0.00    -0.026 C 
ATOM      9  C   UNL     1      96.954 123.535 118.175  1.00  0.00     0.091 C 
ATOM     10  C   UNL     1      96.283 121.069 118.041  1.00  0.00    -0.011 A 
ATOM     11  C   UNL     1      97.537 123.352 119.625  1.00  0.00     0.061 C 
ATOM     12  C   UNL     1      96.339 121.149 119.443  1.00  0.00     0.010 A 
ATOM     13  C   UNL     1      95.663 119.954 117.475  1.00  0.00     0.009 A 
ATOM     14  C   UNL     1      96.903 122.156 120.265  1.00  0.00    -0.020 A 
ATOM     15  C   UNL     1      95.800 120.162 120.249  1.00  0.00     0.046 A 
ATOM     16  C   UNL     1      95.114 118.960 118.300  1.00  0.00     0.003 A 
ATOM     17  C   UNL     1      96.706 121.766 121.570  1.00  0.00     0.087 A 
ATOM     18  N   UNL     1      96.037 120.560 121.548  1.00  0.00    -0.361 N 
ATOM     19  C   UNL     1      95.172 119.040 119.703  1.00  0.00     0.027 A 
ATOM     20  C   UNL     1      96.639 125.410 116.655  1.00  0.00     0.106 C 
ATOM     21  H   UNL     1      95.755 120.039 122.367  1.00  0.00     0.166 HD
ENDBRANCH   3   4
BRANCH   2  22
ATOM     22  C   UNL     1     101.502 122.511 113.300  1.00  0.00     0.116 C 
ATOM     23  C   UNL     1     101.346 121.524 112.152  1.00  0.00     0.027 C 
ENDBRANCH   2  22
BRANCH   2  24
ATOM     24  C   UNL     1      99.606 124.096 112.955  1.00  0.00     0.116 C 
ATOM     25  C   UNL     1     100.606 125.168 112.544  1.00  0.00     0.027 C 
ENDBRANCH   2  24
TORSDOF 3
ENDMDL
MODEL 11
REMARK VINA RESULT:    -5.245      2.831      7.514
REMARK INTER + INTRA:          -6.246
REMARK INTER:                  -6.045
REMARK INTRA:                  -0.201
REMARK UNBOUND:                -0.082
REMARK SMILES CCN(CC)C(=O)[C@@H]1C=C2c3cccc4[nH]cc(c34)C[C@H]2N(C)C1
REMARK SMILES IDX 7 1 3 2 6 3 8 4 24 5 9 6 22 7 10 8 21 9 11 10 20 11 19 12
REMARK SMILES IDX 12 13 18 14 15 15 13 16 17 17 16 18 14 19 23 20 2 22 1 23
REMARK SMILES IDX 4 24 5 25
REMARK H PARENT 16 21
ROOT
ATOM      1  O   UNL     1     100.238 128.452 117.532  1.00  0.00    -0.274 OA
ATOM      2  N   UNL     1     100.642 126.555 116.322  1.00  0.00    -0.343 N 
ATOM      3  C   UNL     1     100.073 127.231 117.402  1.00  0.00     0.230 C 
ENDROOT
BRANCH   3   4
ATOM      4  C   UNL     1      99.227 126.512 118.468  1.00  0.00     0.116 C 
ATOM      5  C   UNL     1      97.759 126.348 118.030  1.00  0.00     0.102 C 
ATOM      6  C   UNL     1      99.383 127.110 119.843  1.00  0.00    -0.007 C 
ATOM      7  N   UNL     1      96.858 125.825 119.077  1.00  0.00    -0.298 NA
ATOM      8  C   UNL     1      98.327 127.208 120.669  1.00  0.00    -0.026 C 
ATOM      9  C   UNL     1      96.922 126.645 120.316  1.00  0.00     0.091 C 
ATOM     10  C   UNL     1      98.393 127.995 121.918  1.00  0.00    -0.011 A 
ATOM     11  C   UNL     1      95.824 127.772 120.291  1.00  0.00     0.061 C 
ATOM     12  C   UNL     1      97.182 128.643 122.219  1.00  0.00     0.010 A 
ATOM     13  C   UNL     1      99.474 128.201 122.776  1.00  0.00     0.009 A 
ATOM     14  C   UNL     1      95.946 128.609 121.526  1.00  0.00    -0.020 A 
ATOM     15  C   UNL     1      97.052 129.460 123.329  1.00  0.00     0.046 A 
ATOM     16  C   UNL     1      99.332 129.026 123.902  1.00  0.00     0.003 A 
ATOM     17  C   UNL     1      95.074 129.415 122.220  1.00  0.00     0.087 A 
ATOM     18  N   UNL     1      95.753 129.923 123.309  1.00  0.00    -0.361 N 
ATOM     19  C   UNL     1      98.120 129.675 124.202  1.00  0.00     0.027 A 
ATOM     20  C   UNL     1      97.143 124.416 119.364  1.00  0.00     0.106 C 
ATOM     21  H   UNL     1      95.357 130.546 124.000  1.00  0.00     0.166 HD
ENDBRANCH   3   4
BRANCH   2  22
ATOM     22  C   UNL     1     101.362 127.376 115.340  1.00  0.00     0.116 C 
ATOM     23  C   UNL     1     102.862 127.399 115.597  1.00  0.00     0.027 C 
ENDBRANCH   2  22
BRANCH   2  24
ATOM     24  C   UNL     1     100.397 125.155 115.946  1.00  0.00     0.116 C 
ATOM     25  C   UNL     1     100.966 124.800 114.579  1.00  0.00     0.027 C 
ENDBRANCH   2  24
TORSDOF 3
ENDMDL
MODEL 12
REMARK VINA RESULT:    -4.870      5.356      8.548
REMARK INTER + INTRA:          -5.806
REMARK INTER:                  -6.001
REMARK INTRA:                   0.195
REMARK UNBOUND:                -0.082
REMARK SMILES CCN(CC)C(=O)[C@@H]1C=C2c3cccc4[nH]cc(c34)C[C@H]2N(C)C1
REMARK SMILES IDX 7 1 3 2 6 3 8 4 24 5 9 6 22 7 10 8 21 9 11 10 20 11 19 12
REMARK SMILES IDX 12 13 18 14 15 15 13 16 17 17 16 18 14 19 23 20 2 22 1 23
REMARK SMILES IDX 4 24 5 25
REMARK H PARENT 16 21
ROOT
ATOM      1  O   UNL     1     100.662 123.835 115.525  1.00  0.00    -0.274 OA
ATOM      2  N   UNL     1     101.109 126.078 115.512  1.00  0.00    -0.343 N 
ATOM      3  C   UNL     1     100.289 124.985 115.797  1.00  0.00     0.230 C 
ENDROOT
BRANCH   3   4
ATOM      4  C   UNL     1      98.904 125.144 116.452  1.00  0.00     0.116 C 
ATOM      5  C   UNL     1      98.983 125.880 117.803  1.00  0.00     0.102 C 
ATOM      6  C   UNL     1      98.132 123.852 116.513  1.00  0.00    -0.007 C 
ATOM      7  N   UNL     1      97.717 125.910 118.563  1.00  0.00    -0.298 NA
ATOM      8  C   UNL     1      97.373 123.560 117.584  1.00  0.00    -0.026 C 
ATOM      9  C   UNL     1      97.168 124.544 118.769  1.00  0.00     0.091 C 
ATOM     10  C   UNL     1      96.797 122.213 117.779  1.00  0.00    -0.011 A 
ATOM     11  C   UNL     1      97.676 123.942 120.131  1.00  0.00     0.061 C 
ATOM     12  C   UNL     1      96.757 121.827 119.130  1.00  0.00     0.010 A 
ATOM     13  C   UNL     1      96.348 121.298 116.826  1.00  0.00     0.009 A 
ATOM     14  C   UNL     1      97.146 122.550 120.284  1.00  0.00    -0.020 A 
ATOM     15  C   UNL     1      96.286 120.584 119.517  1.00  0.00     0.046 A 
ATOM     16  C   UNL     1      95.868 120.042 117.226  1.00  0.00     0.003 A 
ATOM     17  C   UNL     1      96.915 121.734 121.367  1.00  0.00     0.087 A 
ATOM     18  N   UNL     1      96.394 120.548 120.891  1.00  0.00    -0.361 N 
ATOM     19  C   UNL     1      95.828 119.657 118.578  1.00  0.00     0.027 A 
ATOM     20  C   UNL     1      96.732 126.781 117.915  1.00  0.00     0.106 C 
ATOM     21  H   UNL     1      96.124 119.762 121.466  1.00  0.00     0.166 HD
ENDBRANCH   3   4
BRANCH   2  22
ATOM     22  C   UNL     1     102.434 125.776 114.957  1.00  0.00     0.116 C 
ATOM     23  C   UNL     1     102.965 126.906 114.087  1.00  0.00     0.027 C 
ENDBRANCH   2  22
BRANCH   2  24
ATOM     24  C   UNL     1     100.877 127.469 115.926  1.00  0.00     0.116 C 
ATOM     25  C   UNL     1     101.797 127.913 117.056  1.00  0.00     0.027 C 
ENDBRANCH   2  24
TORSDOF 3
ENDMDL
MODEL 13
REMARK VINA RESULT:    -4.851      4.648      7.984
REMARK INTER + INTRA:          -5.784
REMARK INTER:                  -6.014
REMARK INTRA:                   0.231
REMARK UNBOUND:                -0.082
REMARK SMILES CCN(CC)C(=O)[C@@H]1C=C2c3cccc4[nH]cc(c34)C[C@H]2N(C)C1
REMARK SMILES IDX 7 1 3 2 6 3 8 4 24 5 9 6 22 7 10 8 21 9 11 10 20 11 19 12
REMARK SMILES IDX 12 13 18 14 15 15 13 16 17 17 16 18 14 19 23 20 2 22 1 23
REMARK SMILES IDX 4 24 5 25
REMARK H PARENT 16 21
ROOT
ATOM      1  O   UNL     1     101.474 127.906 117.276  1.00  0.00    -0.274 OA
ATOM      2  N   UNL     1     101.471 126.127 115.839  1.00  0.00    -0.343 N 
ATOM      3  C   UNL     1     100.835 126.997 116.726  1.00  0.00     0.230 C 
ENDROOT
BRANCH   3   4
ATOM      4  C   UNL     1      99.338 126.880 117.062  1.00  0.00     0.116 C 
ATOM      5  C   UNL     1      99.009 127.455 118.453  1.00  0.00     0.102 C 
ATOM      6  C   UNL     1      98.793 125.493 116.839  1.00  0.00    -0.007 C 
ATOM      7  N   UNL     1      97.624 127.215 118.908  1.00  0.00    -0.298 NA
ATOM      8  C   UNL     1      97.885 124.971 117.683  1.00  0.00    -0.026 C 
ATOM      9  C   UNL     1      97.276 125.770 118.869  1.00  0.00     0.091 C 
ATOM     10  C   UNL     1      97.512 123.542 117.631  1.00  0.00    -0.011 A 
ATOM     11  C   UNL     1      97.580 125.092 120.256  1.00  0.00     0.061 C 
ATOM     12  C   UNL     1      97.252 122.999 118.901  1.00  0.00     0.010 A 
ATOM     13  C   UNL     1      97.429 122.692 116.528  1.00  0.00     0.009 A 
ATOM     14  C   UNL     1      97.266 123.630 120.170  1.00  0.00    -0.020 A 
ATOM     15  C   UNL     1      96.923 121.665 119.067  1.00  0.00     0.046 A 
ATOM     16  C   UNL     1      97.090 121.341 116.704  1.00  0.00     0.003 A 
ATOM     17  C   UNL     1      96.951 122.667 121.101  1.00  0.00     0.087 A 
ATOM     18  N   UNL     1      96.744 121.484 120.422  1.00  0.00    -0.361 N 
ATOM     19  C   UNL     1      96.831 120.798 117.976  1.00  0.00     0.027 A 
ATOM     20  C   UNL     1      96.667 128.007 118.128  1.00  0.00     0.106 C 
ATOM     21  H   UNL     1      96.493 120.605 120.854  1.00  0.00     0.166 HD
ENDBRANCH   3   4
BRANCH   2  22
ATOM     22  C   UNL     1     102.885 126.400 115.554  1.00  0.00     0.116 C 
ATOM     23  C   UNL     1     103.074 127.140 114.237  1.00  0.00     0.027 C 
ENDBRANCH   2  22
BRANCH   2  24
ATOM     24  C   UNL     1     100.817 125.119 114.992  1.00  0.00     0.116 C 
ATOM     25  C   UNL     1     101.561 123.791 114.969  1.00  0.00     0.027 C 
ENDBRANCH   2  24
TORSDOF 3
ENDMDL
MODEL 14
REMARK VINA RESULT:    -4.831      4.313      7.551
REMARK INTER + INTRA:          -5.760
REMARK INTER:                  -5.556
REMARK INTRA:                  -0.203
REMARK UNBOUND:                -0.082
REMARK SMILES CCN(CC)C(=O)[C@@H]1C=C2c3cccc4[nH]cc(c34)C[C@H]2N(C)C1
REMARK SMILES IDX 7 1 3 2 6 3 8 4 24 5 9 6 22 7 10 8 21 9 11 10 20 11 19 12
REMARK SMILES IDX 12 13 18 14 15 15 13 16 17 17 16 18 14 19 23 20 2 22 1 23
REMARK SMILES IDX 4 24 5 25
REMARK H PARENT 16 21
ROOT
ATOM      1  O   UNL     1      98.323 124.905 120.504  1.00  0.00    -0.274 OA
ATOM      2  N   UNL     1      97.680 126.783 119.370  1.00  0.00    -0.343 N 
ATOM      3  C   UNL     1      97.701 125.400 119.554  1.00  0.00     0.230 C 
ENDROOT
BRANCH   3   4
ATOM      4  C   UNL     1      96.966 124.434 118.608  1.00  0.00     0.116 C 
ATOM      5  C   UNL     1      96.853 123.016 119.200  1.00  0.00     0.102 C 
ATOM      6  C   UNL     1      97.512 124.459 117.204  1.00  0.00    -0.007 C 
ATOM      7  N   UNL     1      96.316 122.001 118.271  1.00  0.00    -0.298 NA
ATOM      8  C   UNL     1      97.607 123.324 116.487  1.00  0.00    -0.026 C 
ATOM      9  C   UNL     1      97.091 121.952 117.003  1.00  0.00     0.091 C 
ATOM     10  C   UNL     1      98.349 123.276 115.210  1.00  0.00    -0.011 A 
ATOM     11  C   UNL     1      98.244 120.886 117.100  1.00  0.00     0.061 C 
ATOM     12  C   UNL     1      99.016 122.055 115.012  1.00  0.00     0.010 A 
ATOM     13  C   UNL     1      98.499 124.267 114.239  1.00  0.00     0.009 A 
ATOM     14  C   UNL     1      99.035 120.897 115.829  1.00  0.00    -0.020 A 
ATOM     15  C   UNL     1      99.797 121.827 113.892  1.00  0.00     0.046 A 
ATOM     16  C   UNL     1      99.289 124.026 113.104  1.00  0.00     0.003 A 
ATOM     17  C   UNL     1      99.838 119.974 115.199  1.00  0.00     0.087 A 
ATOM     18  N   UNL     1     100.291 120.547 114.028  1.00  0.00    -0.361 N 
ATOM     19  C   UNL     1      99.956 122.803 112.906  1.00  0.00     0.027 A 
ATOM     20  C   UNL     1      94.892 122.226 118.008  1.00  0.00     0.106 C 
ATOM     21  H   UNL     1     100.899 120.094 113.359  1.00  0.00     0.166 HD
ENDBRANCH   3   4
BRANCH   2  22
ATOM     22  C   UNL     1      98.361 127.590 120.390  1.00  0.00     0.116 C 
ATOM     23  C   UNL     1      97.421 128.021 121.507  1.00  0.00     0.027 C 
ENDBRANCH   2  22
BRANCH   2  24
ATOM     24  C   UNL     1      96.857 127.519 118.399  1.00  0.00     0.116 C 
ATOM     25  C   UNL     1      97.390 128.915 118.107  1.00  0.00     0.027 C 
ENDBRANCH   2  24
TORSDOF 3
ENDMDL
MODEL 15
REMARK VINA RESULT:    -4.647      6.453      9.827
REMARK INTER + INTRA:          -5.544
REMARK INTER:                  -5.898
REMARK INTRA:                   0.353
REMARK UNBOUND:                -0.082
REMARK SMILES CCN(CC)C(=O)[C@@H]1C=C2c3cccc4[nH]cc(c34)C[C@H]2N(C)C1
REMARK SMILES IDX 7 1 3 2 6 3 8 4 24 5 9 6 22 7 10 8 21 9 11 10 20 11 19 12
REMARK SMILES IDX 12 13 18 14 15 15 13 16 17 17 16 18 14 19 23 20 2 22 1 23
REMARK SMILES IDX 4 24 5 25
REMARK H PARENT 16 21
ROOT
ATOM      1  O   UNL     1      97.359 124.060 115.870  1.00  0.00    -0.274 OA
ATOM      2  N   UNL     1      99.001 122.888 114.793  1.00  0.00    -0.343 N 
ATOM      3  C   UNL     1      98.217 123.166 115.913  1.00  0.00     0.230 C 
ENDROOT
BRANCH   3   4
ATOM      4  C   UNL     1      98.370 122.393 117.236  1.00  0.00     0.116 C 
ATOM      5  C   UNL     1      98.614 120.890 117.005  1.00  0.00     0.102 C 
ATOM      6  C   UNL     1      97.261 122.680 118.215  1.00  0.00    -0.007 C 
ATOM      7  N   UNL     1      98.595 120.066 118.231  1.00  0.00    -0.298 NA
ATOM      8  C   UNL     1      96.763 121.700 118.990  1.00  0.00    -0.026 C 
ATOM      9  C   UNL     1      97.337 120.256 118.999  1.00  0.00     0.091 C 
ATOM     10  C   UNL     1      95.529 121.891 119.781  1.00  0.00    -0.011 A 
ATOM     11  C   UNL     1      96.261 119.190 118.571  1.00  0.00     0.061 C 
ATOM     12  C   UNL     1      94.744 120.728 119.857  1.00  0.00     0.010 A 
ATOM     13  C   UNL     1      95.047 123.046 120.399  1.00  0.00     0.009 A 
ATOM     14  C   UNL     1      94.992 119.438 119.326  1.00  0.00    -0.020 A 
ATOM     15  C   UNL     1      93.531 120.713 120.523  1.00  0.00     0.046 A 
ATOM     16  C   UNL     1      93.819 123.021 121.076  1.00  0.00     0.003 A 
ATOM     17  C   UNL     1      93.918 118.649 119.668  1.00  0.00     0.087 A 
ATOM     18  N   UNL     1      93.042 119.430 120.394  1.00  0.00    -0.361 N 
ATOM     19  C   UNL     1      93.033 121.857 121.152  1.00  0.00     0.027 A 
ATOM     20  C   UNL     1      99.768 120.337 119.068  1.00  0.00     0.106 C 
ATOM     21  H   UNL     1      92.164 119.110 120.781  1.00  0.00     0.166 HD
ENDBRANCH   3   4
BRANCH   2  22
ATOM     22  C   UNL     1      98.698 123.650 113.575  1.00  0.00     0.116 C 
ATOM     23  C   UNL     1      99.920 124.376 113.031  1.00  0.00     0.027 C 
ENDBRANCH   2  22
BRANCH   2  24
ATOM     24  C   UNL     1      99.930 121.759 114.641  1.00  0.00     0.116 C 
ATOM     25  C   UNL     1      99.525 120.804 113.525  1.00  0.00     0.027 C 
ENDBRANCH   2  24
TORSDOF 3
ENDMDL
