MODEL 1
REMARK VINA RESULT:    -8.335      0.000      0.000
REMARK INTER + INTRA:         -10.233
REMARK INTER:                  -9.796
REMARK INTRA:                  -0.436
REMARK UNBOUND:                -0.436
REMARK SMILES CCN(CC)C(=O)[C@@H]1C=C2c3cccc4[nH]cc(c34)C[C@H]2N(C)C1
REMARK SMILES IDX 7 1 3 2 6 3 8 4 24 5 9 6 22 7 10 8 21 9 11 10 20 11 19 12
REMARK SMILES IDX 12 13 18 14 15 15 13 16 17 17 16 18 14 19 23 20 2 22 1 23
REMARK SMILES IDX 4 24 5 25
REMARK H PARENT 16 21
ROOT
ATOM      1  O   UNL     1      -8.284 -19.088  22.936  1.00  0.00    -0.274 OA
ATOM      2  N   UNL     1      -9.363 -20.469  24.405  1.00  0.00    -0.343 N 
ATOM      3  C   UNL     1      -9.242 -19.841  23.165  1.00  0.00     0.230 C 
ENDROOT
BRANCH   3   4
ATOM      4  C   UNL     1     -10.269 -20.044  22.036  1.00  0.00     0.116 C 
ATOM      5  C   UNL     1      -9.696 -19.670  20.656  1.00  0.00     0.102 C 
ATOM      6  C   UNL     1     -11.600 -19.401  22.331  1.00  0.00    -0.007 C 
ATOM      7  N   UNL     1     -10.682 -19.676  19.556  1.00  0.00    -0.298 NA
ATOM      8  C   UNL     1     -12.302 -18.804  21.351  1.00  0.00    -0.026 C 
ATOM      9  C   UNL     1     -11.851 -18.810  19.864  1.00  0.00     0.091 C 
ATOM     10  C   UNL     1     -13.483 -17.967  21.647  1.00  0.00    -0.011 A 
ATOM     11  C   UNL     1     -11.622 -17.354  19.311  1.00  0.00     0.061 C 
ATOM     12  C   UNL     1     -13.604 -16.868  20.779  1.00  0.00     0.010 A 
ATOM     13  C   UNL     1     -14.429 -18.103  22.663  1.00  0.00     0.009 A 
ATOM     14  C   UNL     1     -12.792 -16.496  19.679  1.00  0.00    -0.020 A 
ATOM     15  C   UNL     1     -14.625 -15.943  20.916  1.00  0.00     0.046 A 
ATOM     16  C   UNL     1     -15.464 -17.164  22.792  1.00  0.00     0.003 A 
ATOM     17  C   UNL     1     -13.325 -15.339  19.160  1.00  0.00     0.087 A 
ATOM     18  N   UNL     1     -14.434 -15.015  19.915  1.00  0.00    -0.361 N 
ATOM     19  C   UNL     1     -15.584 -16.064  21.924  1.00  0.00     0.027 A 
ATOM     20  C   UNL     1     -11.110 -21.041  19.237  1.00  0.00     0.106 C 
ATOM     21  H   UNL     1     -15.028 -14.212  19.757  1.00  0.00     0.166 HD
ENDBRANCH   3   4
BRANCH   2  22
ATOM     22  C   UNL     1      -8.273 -20.244  25.362  1.00  0.00     0.116 C 
ATOM     23  C   UNL     1      -7.713 -21.547  25.914  1.00  0.00     0.027 C 
ENDBRANCH   2  22
BRANCH   2  24
ATOM     24  C   UNL     1     -10.340 -21.507  24.761  1.00  0.00     0.116 C 
ATOM     25  C   UNL     1     -11.523 -20.962  25.551  1.00  0.00     0.027 C 
ENDBRANCH   2  24
TORSDOF 3
ENDMDL
MODEL 2
REMARK VINA RESULT:    -8.334      2.566      7.284
REMARK INTER + INTRA:         -10.232
REMARK INTER:                  -9.734
REMARK INTRA:                  -0.497
REMARK UNBOUND:                -0.436
REMARK SMILES CCN(CC)C(=O)[C@@H]1C=C2c3cccc4[nH]cc(c34)C[C@H]2N(C)C1
REMARK SMILES IDX 7 1 3 2 6 3 8 4 24 5 9 6 22 7 10 8 21 9 11 10 20 11 19 12
REMARK SMILES IDX 12 13 18 14 15 15 13 16 17 17 16 18 14 19 23 20 2 22 1 23
REMARK SMILES IDX 4 24 5 25
REMARK H PARENT 16 21
ROOT
ATOM      1  O   UNL     1     -12.705 -15.923  20.081  1.00  0.00    -0.274 OA
ATOM      2  N   UNL     1     -13.392 -15.919  17.900  1.00  0.00    -0.343 N 
ATOM      3  C   UNL     1     -12.715 -16.490  18.979  1.00  0.00     0.230 C 
ENDROOT
BRANCH   3   4
ATOM      4  C   UNL     1     -11.959 -17.826  18.863  1.00  0.00     0.116 C 
ATOM      5  C   UNL     1     -12.734 -18.988  19.513  1.00  0.00     0.102 C 
ATOM      6  C   UNL     1     -10.525 -17.730  19.313  1.00  0.00    -0.007 C 
ATOM      7  N   UNL     1     -11.986 -20.260  19.590  1.00  0.00    -0.298 NA
ATOM      8  C   UNL     1      -9.952 -18.742  19.990  1.00  0.00    -0.026 C 
ATOM      9  C   UNL     1     -10.677 -20.087  20.273  1.00  0.00     0.091 C 
ATOM     10  C   UNL     1      -8.637 -18.586  20.646  1.00  0.00    -0.011 A 
ATOM     11  C   UNL     1     -10.817 -20.369  21.815  1.00  0.00     0.061 C 
ATOM     12  C   UNL     1      -8.543 -19.297  21.855  1.00  0.00     0.010 A 
ATOM     13  C   UNL     1      -7.539 -17.821  20.252  1.00  0.00     0.009 A 
ATOM     14  C   UNL     1      -9.496 -20.138  22.481  1.00  0.00    -0.020 A 
ATOM     15  C   UNL     1      -7.403 -19.249  22.639  1.00  0.00     0.046 A 
ATOM     16  C   UNL     1      -6.385 -17.782  21.050  1.00  0.00     0.003 A 
ATOM     17  C   UNL     1      -8.926 -20.591  23.649  1.00  0.00     0.087 A 
ATOM     18  N   UNL     1      -7.660 -20.048  23.733  1.00  0.00    -0.361 N 
ATOM     19  C   UNL     1      -6.292 -18.492  22.260  1.00  0.00     0.027 A 
ATOM     20  C   UNL     1     -11.810 -20.851  18.260  1.00  0.00     0.106 C 
ATOM     21  H   UNL     1      -7.008 -20.212  24.488  1.00  0.00     0.166 HD
ENDBRANCH   3   4
BRANCH   2  22
ATOM     22  C   UNL     1     -14.132 -14.681  18.172  1.00  0.00     0.116 C 
ATOM     23  C   UNL     1     -14.001 -13.672  17.040  1.00  0.00     0.027 C 
ENDBRANCH   2  22
BRANCH   2  24
ATOM     24  C   UNL     1     -13.631 -16.549  16.594  1.00  0.00     0.116 C 
ATOM     25  C   UNL     1     -14.870 -17.436  16.581  1.00  0.00     0.027 C 
ENDBRANCH   2  24
TORSDOF 3
ENDMDL
MODEL 3
REMARK VINA RESULT:    -8.298      4.297      8.613
REMARK INTER + INTRA:         -10.190
REMARK INTER:                  -9.732
REMARK INTRA:                  -0.457
REMARK UNBOUND:                -0.436
REMARK SMILES CCN(CC)C(=O)[C@@H]1C=C2c3cccc4[nH]cc(c34)C[C@H]2N(C)C1
REMARK SMILES IDX 7 1 3 2 6 3 8 4 24 5 9 6 22 7 10 8 21 9 11 10 20 11 19 12
REMARK SMILES IDX 12 13 18 14 15 15 13 16 17 17 16 18 14 19 23 20 2 22 1 23
REMARK SMILES IDX 4 24 5 25
REMARK H PARENT 16 21
ROOT
ATOM      1  O   UNL     1     -17.040 -16.752  15.806  1.00  0.00    -0.274 OA
ATOM      2  N   UNL     1     -17.373 -14.490  15.804  1.00  0.00    -0.343 N 
ATOM      3  C   UNL     1     -16.553 -15.616  15.893  1.00  0.00     0.230 C 
ENDROOT
BRANCH   3   4
ATOM      4  C   UNL     1     -15.031 -15.511  16.099  1.00  0.00     0.116 C 
ATOM      5  C   UNL     1     -14.251 -16.416  15.127  1.00  0.00     0.102 C 
ATOM      6  C   UNL     1     -14.621 -15.677  17.539  1.00  0.00    -0.007 C 
ATOM      7  N   UNL     1     -12.799 -16.495  15.389  1.00  0.00    -0.298 NA
ATOM      8  C   UNL     1     -13.498 -16.345  17.857  1.00  0.00    -0.026 C 
ATOM      9  C   UNL     1     -12.516 -16.903  16.790  1.00  0.00     0.091 C 
ATOM     10  C   UNL     1     -13.194 -16.727  19.252  1.00  0.00    -0.011 A 
ATOM     11  C   UNL     1     -12.361 -18.466  16.890  1.00  0.00     0.061 C 
ATOM     12  C   UNL     1     -12.544 -17.969  19.348  1.00  0.00     0.010 A 
ATOM     13  C   UNL     1     -13.498 -16.057  20.437  1.00  0.00     0.009 A 
ATOM     14  C   UNL     1     -12.126 -18.849  18.318  1.00  0.00    -0.020 A 
ATOM     15  C   UNL     1     -12.207 -18.521  20.572  1.00  0.00     0.046 A 
ATOM     16  C   UNL     1     -13.149 -16.620  21.674  1.00  0.00     0.003 A 
ATOM     17  C   UNL     1     -11.543 -19.935  18.929  1.00  0.00     0.087 A 
ATOM     18  N   UNL     1     -11.597 -19.725  20.292  1.00  0.00    -0.361 N 
ATOM     19  C   UNL     1     -12.499 -17.863  21.770  1.00  0.00     0.027 A 
ATOM     20  C   UNL     1     -12.135 -15.228  15.066  1.00  0.00     0.106 C 
ATOM     21  H   UNL     1     -11.237 -20.361  20.991  1.00  0.00     0.166 HD
ENDBRANCH   3   4
BRANCH   2  22
ATOM     22  C   UNL     1     -18.795 -14.734  15.532  1.00  0.00     0.116 C 
ATOM     23  C   UNL     1     -19.130 -14.600  14.054  1.00  0.00     0.027 C 
ENDBRANCH   2  22
BRANCH   2  24
ATOM     24  C   UNL     1     -16.924 -13.093  15.721  1.00  0.00     0.116 C 
ATOM     25  C   UNL     1     -16.555 -12.507  17.078  1.00  0.00     0.027 C 
ENDBRANCH   2  24
TORSDOF 3
ENDMDL
MODEL 4
REMARK VINA RESULT:    -8.256      2.319      3.099
REMARK INTER + INTRA:         -10.140
REMARK INTER:                  -9.757
REMARK INTRA:                  -0.383
REMARK UNBOUND:                -0.436
REMARK SMILES CCN(CC)C(=O)[C@@H]1C=C2c3cccc4[nH]cc(c34)C[C@H]2N(C)C1
REMARK SMILES IDX 7 1 3 2 6 3 8 4 24 5 9 6 22 7 10 8 21 9 11 10 20 11 19 12
REMARK SMILES IDX 12 13 18 14 15 15 13 16 17 17 16 18 14 19 23 20 2 22 1 23
REMARK SMILES IDX 4 24 5 25
REMARK H PARENT 16 21
ROOT
ATOM      1  O   UNL     1      -8.462 -16.836  19.150  1.00  0.00    -0.274 OA
ATOM      2  N   UNL     1      -8.318 -18.551  20.655  1.00  0.00    -0.343 N 
ATOM      3  C   UNL     1      -8.978 -17.847  19.647  1.00  0.00     0.230 C 
ENDROOT
BRANCH   3   4
ATOM      4  C   UNL     1     -10.354 -18.278  19.108  1.00  0.00     0.116 C 
ATOM      5  C   UNL     1     -10.587 -17.800  17.662  1.00  0.00     0.102 C 
ATOM      6  C   UNL     1     -11.484 -17.938  20.045  1.00  0.00    -0.007 C 
ATOM      7  N   UNL     1     -11.953 -18.029  17.149  1.00  0.00    -0.298 NA
ATOM      8  C   UNL     1     -12.667 -17.516  19.564  1.00  0.00    -0.026 C 
ATOM      9  C   UNL     1     -12.981 -17.436  18.043  1.00  0.00     0.091 C 
ATOM     10  C   UNL     1     -13.707 -16.954  20.451  1.00  0.00    -0.011 A 
ATOM     11  C   UNL     1     -13.330 -15.970  17.590  1.00  0.00     0.061 C 
ATOM     12  C   UNL     1     -14.436 -15.915  19.848  1.00  0.00     0.010 A 
ATOM     13  C   UNL     1     -14.013 -17.285  21.771  1.00  0.00     0.009 A 
ATOM     14  C   UNL     1     -14.330 -15.384  18.538  1.00  0.00    -0.020 A 
ATOM     15  C   UNL     1     -15.429 -15.234  20.529  1.00  0.00     0.046 A 
ATOM     16  C   UNL     1     -15.026 -16.593  22.453  1.00  0.00     0.003 A 
ATOM     17  C   UNL     1     -15.260 -14.375  18.437  1.00  0.00     0.087 A 
ATOM     18  N   UNL     1     -15.920 -14.294  19.646  1.00  0.00    -0.361 N 
ATOM     19  C   UNL     1     -15.754 -15.552  21.849  1.00  0.00     0.027 A 
ATOM     20  C   UNL     1     -12.204 -19.457  16.934  1.00  0.00     0.106 C 
ATOM     21  H   UNL     1     -16.662 -13.642  19.859  1.00  0.00     0.166 HD
ENDBRANCH   3   4
BRANCH   2  22
ATOM     22  C   UNL     1      -6.980 -18.071  21.021  1.00  0.00     0.116 C 
ATOM     23  C   UNL     1      -6.184 -19.115  21.791  1.00  0.00     0.027 C 
ENDBRANCH   2  22
BRANCH   2  24
ATOM     24  C   UNL     1      -8.722 -19.848  21.217  1.00  0.00     0.116 C 
ATOM     25  C   UNL     1      -9.559 -19.711  22.482  1.00  0.00     0.027 C 
ENDBRANCH   2  24
TORSDOF 3
ENDMDL
MODEL 5
REMARK VINA RESULT:    -8.158      3.572      5.249
REMARK INTER + INTRA:         -10.025
REMARK INTER:                  -9.563
REMARK INTRA:                  -0.462
REMARK UNBOUND:                -0.436
REMARK SMILES CCN(CC)C(=O)[C@@H]1C=C2c3cccc4[nH]cc(c34)C[C@H]2N(C)C1
REMARK SMILES IDX 7 1 3 2 6 3 8 4 24 5 9 6 22 7 10 8 21 9 11 10 20 11 19 12
REMARK SMILES IDX 12 13 18 14 15 15 13 16 17 17 16 18 14 19 23 20 2 22 1 23
REMARK SMILES IDX 4 24 5 25
REMARK H PARENT 16 21
ROOT
ATOM      1  O   UNL     1     -13.269 -15.917  20.976  1.00  0.00    -0.274 OA
ATOM      2  N   UNL     1     -12.909 -17.713  22.344  1.00  0.00    -0.343 N 
ATOM      3  C   UNL     1     -13.070 -17.135  21.084  1.00  0.00     0.230 C 
ENDROOT
BRANCH   3   4
ATOM      4  C   UNL     1     -13.012 -17.962  19.786  1.00  0.00     0.116 C 
ATOM      5  C   UNL     1     -11.567 -18.161  19.291  1.00  0.00     0.102 C 
ATOM      6  C   UNL     1     -13.949 -17.451  18.723  1.00  0.00    -0.007 C 
ATOM      7  N   UNL     1     -11.453 -18.793  17.961  1.00  0.00    -0.298 NA
ATOM      8  C   UNL     1     -13.583 -17.457  17.429  1.00  0.00    -0.026 C 
ATOM      9  C   UNL     1     -12.237 -18.057  16.934  1.00  0.00     0.091 C 
ATOM     10  C   UNL     1     -14.374 -16.753  16.398  1.00  0.00    -0.011 A 
ATOM     11  C   UNL     1     -11.339 -16.981  16.219  1.00  0.00     0.061 C 
ATOM     12  C   UNL     1     -13.575 -16.182  15.393  1.00  0.00     0.010 A 
ATOM     13  C   UNL     1     -15.753 -16.557  16.325  1.00  0.00     0.009 A 
ATOM     14  C   UNL     1     -12.168 -16.224  15.228  1.00  0.00    -0.020 A 
ATOM     15  C   UNL     1     -14.126 -15.448  14.356  1.00  0.00     0.046 A 
ATOM     16  C   UNL     1     -16.304 -15.817  15.268  1.00  0.00     0.003 A 
ATOM     17  C   UNL     1     -11.875 -15.507  14.092  1.00  0.00     0.087 A 
ATOM     18  N   UNL     1     -13.066 -15.043  13.572  1.00  0.00    -0.361 N 
ATOM     19  C   UNL     1     -15.504 -15.245  14.263  1.00  0.00     0.027 A 
ATOM     20  C   UNL     1     -11.848 -20.204  18.011  1.00  0.00     0.106 C 
ATOM     21  H   UNL     1     -13.155 -14.487  12.732  1.00  0.00     0.166 HD
ENDBRANCH   3   4
BRANCH   2  22
ATOM     22  C   UNL     1     -12.913 -16.797  23.491  1.00  0.00     0.116 C 
ATOM     23  C   UNL     1     -14.052 -17.089  24.457  1.00  0.00     0.027 C 
ENDBRANCH   2  22
BRANCH   2  24
ATOM     24  C   UNL     1     -12.503 -19.100  22.618  1.00  0.00     0.116 C 
ATOM     25  C   UNL     1     -11.015 -19.235  22.912  1.00  0.00     0.027 C 
ENDBRANCH   2  24
TORSDOF 3
ENDMDL
MODEL 6
REMARK VINA RESULT:    -8.095      2.093      2.790
REMARK INTER + INTRA:          -9.951
REMARK INTER:                  -9.806
REMARK INTRA:                  -0.145
REMARK UNBOUND:                -0.436
REMARK SMILES CCN(CC)C(=O)[C@@H]1C=C2c3cccc4[nH]cc(c34)C[C@H]2N(C)C1
REMARK SMILES IDX 7 1 3 2 6 3 8 4 24 5 9 6 22 7 10 8 21 9 11 10 20 11 19 12
REMARK SMILES IDX 12 13 18 14 15 15 13 16 17 17 16 18 14 19 23 20 2 22 1 23
REMARK SMILES IDX 4 24 5 25
REMARK H PARENT 16 21
ROOT
ATOM      1  O   UNL     1      -7.305 -17.968  20.784  1.00  0.00    -0.274 OA
ATOM      2  N   UNL     1      -6.888 -19.526  22.405  1.00  0.00    -0.343 N 
ATOM      3  C   UNL     1      -7.701 -18.950  21.428  1.00  0.00     0.230 C 
ENDROOT
BRANCH   3   4
ATOM      4  C   UNL     1      -9.105 -19.493  21.101  1.00  0.00     0.116 C 
ATOM      5  C   UNL     1      -9.668 -18.895  19.798  1.00  0.00     0.102 C 
ATOM      6  C   UNL     1     -10.055 -19.401  22.267  1.00  0.00    -0.007 C 
ATOM      7  N   UNL     1     -11.078 -19.238  19.521  1.00  0.00    -0.298 NA
ATOM      8  C   UNL     1     -11.347 -19.084  22.072  1.00  0.00    -0.026 C 
ATOM      9  C   UNL     1     -11.964 -18.880  20.660  1.00  0.00     0.091 C 
ATOM     10  C   UNL     1     -12.242 -18.756  23.202  1.00  0.00    -0.011 A 
ATOM     11  C   UNL     1     -12.546 -17.430  20.474  1.00  0.00     0.061 C 
ATOM     12  C   UNL     1     -13.180 -17.759  22.885  1.00  0.00     0.010 A 
ATOM     13  C   UNL     1     -12.243 -19.263  24.502  1.00  0.00     0.009 A 
ATOM     14  C   UNL     1     -13.392 -17.081  21.659  1.00  0.00    -0.020 A 
ATOM     15  C   UNL     1     -14.083 -17.287  23.821  1.00  0.00     0.046 A 
ATOM     16  C   UNL     1     -13.166 -18.783  25.444  1.00  0.00     0.003 A 
ATOM     17  C   UNL     1     -14.423 -16.193  21.864  1.00  0.00     0.087 A 
ATOM     18  N   UNL     1     -14.834 -16.328  23.175  1.00  0.00    -0.361 N 
ATOM     19  C   UNL     1     -14.103 -17.784  25.126  1.00  0.00     0.027 A 
ATOM     20  C   UNL     1     -11.218 -20.655  19.173  1.00  0.00     0.106 C 
ATOM     21  H   UNL     1     -15.582 -15.801  23.604  1.00  0.00     0.166 HD
ENDBRANCH   3   4
BRANCH   2  22
ATOM     22  C   UNL     1      -5.545 -18.955  22.560  1.00  0.00     0.116 C 
ATOM     23  C   UNL     1      -4.607 -19.884  23.318  1.00  0.00     0.027 C 
ENDBRANCH   2  22
BRANCH   2  24
ATOM     24  C   UNL     1      -7.150 -20.782  23.123  1.00  0.00     0.116 C 
ATOM     25  C   UNL     1      -7.775 -20.562  24.494  1.00  0.00     0.027 C 
ENDBRANCH   2  24
TORSDOF 3
ENDMDL
MODEL 7
REMARK VINA RESULT:    -7.841      7.494     10.197
REMARK INTER + INTRA:          -9.653
REMARK INTER:                  -9.157
REMARK INTRA:                  -0.496
REMARK UNBOUND:                -0.436
REMARK SMILES CCN(CC)C(=O)[C@@H]1C=C2c3cccc4[nH]cc(c34)C[C@H]2N(C)C1
REMARK SMILES IDX 7 1 3 2 6 3 8 4 24 5 9 6 22 7 10 8 21 9 11 10 20 11 19 12
REMARK SMILES IDX 12 13 18 14 15 15 13 16 17 17 16 18 14 19 23 20 2 22 1 23
REMARK SMILES IDX 4 24 5 25
REMARK H PARENT 16 21
ROOT
ATOM      1  O   UNL     1     -17.079 -14.364  18.328  1.00  0.00    -0.274 OA
ATOM      2  N   UNL     1     -15.359 -15.865  18.200  1.00  0.00    -0.343 N 
ATOM      3  C   UNL     1     -16.383 -15.111  17.626  1.00  0.00     0.230 C 
ENDROOT
BRANCH   3   4
ATOM      4  C   UNL     1     -16.699 -15.165  16.120  1.00  0.00     0.116 C 
ATOM      5  C   UNL     1     -16.197 -13.912  15.377  1.00  0.00     0.102 C 
ATOM      6  C   UNL     1     -18.140 -15.498  15.834  1.00  0.00    -0.007 C 
ATOM      7  N   UNL     1     -16.621 -13.820  13.965  1.00  0.00    -0.298 NA
ATOM      8  C   UNL     1     -18.790 -14.905  14.817  1.00  0.00    -0.026 C 
ATOM      9  C   UNL     1     -18.098 -13.924  13.829  1.00  0.00     0.091 C 
ATOM     10  C   UNL     1     -20.254 -15.029  14.657  1.00  0.00    -0.011 A 
ATOM     11  C   UNL     1     -18.758 -12.496  13.855  1.00  0.00     0.061 C 
ATOM     12  C   UNL     1     -20.850 -13.859  14.156  1.00  0.00     0.010 A 
ATOM     13  C   UNL     1     -21.088 -16.104  14.968  1.00  0.00     0.009 A 
ATOM     14  C   UNL     1     -20.246 -12.637  13.766  1.00  0.00    -0.020 A 
ATOM     15  C   UNL     1     -22.218 -13.762  13.970  1.00  0.00     0.046 A 
ATOM     16  C   UNL     1     -22.473 -15.999  14.772  1.00  0.00     0.003 A 
ATOM     17  C   UNL     1     -21.258 -11.803  13.352  1.00  0.00     0.087 A 
ATOM     18  N   UNL     1     -22.446 -12.494  13.478  1.00  0.00    -0.361 N 
ATOM     19  C   UNL     1     -23.069 -14.828  14.271  1.00  0.00     0.027 A 
ATOM     20  C   UNL     1     -15.946 -14.829  13.144  1.00  0.00     0.106 C 
ATOM     21  H   UNL     1     -23.358 -12.127  13.241  1.00  0.00     0.166 HD
ENDBRANCH   3   4
BRANCH   2  22
ATOM     22  C   UNL     1     -15.120 -15.661  19.634  1.00  0.00     0.116 C 
ATOM     23  C   UNL     1     -13.639 -15.703  19.982  1.00  0.00     0.027 C 
ENDBRANCH   2  22
BRANCH   2  24
ATOM     24  C   UNL     1     -14.354 -16.658  17.477  1.00  0.00     0.116 C 
ATOM     25  C   UNL     1     -14.738 -18.126  17.349  1.00  0.00     0.027 C 
ENDBRANCH   2  24
TORSDOF 3
ENDMDL
MODEL 8
REMARK VINA RESULT:    -7.781      3.374      5.578
REMARK INTER + INTRA:          -9.582
REMARK INTER:                  -9.115
REMARK INTRA:                  -0.468
REMARK UNBOUND:                -0.436
REMARK SMILES CCN(CC)C(=O)[C@@H]1C=C2c3cccc4[nH]cc(c34)C[C@H]2N(C)C1
REMARK SMILES IDX 7 1 3 2 6 3 8 4 24 5 9 6 22 7 10 8 21 9 11 10 20 11 19 12
REMARK SMILES IDX 12 13 18 14 15 15 13 16 17 17 16 18 14 19 23 20 2 22 1 23
REMARK SMILES IDX 4 24 5 25
REMARK H PARENT 16 21
ROOT
ATOM      1  O   UNL     1     -13.774 -19.938  19.633  1.00  0.00    -0.274 OA
ATOM      2  N   UNL     1     -11.524 -19.567  19.465  1.00  0.00    -0.343 N 
ATOM      3  C   UNL     1     -12.805 -19.209  19.887  1.00  0.00     0.230 C 
ENDROOT
BRANCH   3   4
ATOM      4  C   UNL     1     -13.079 -17.914  20.674  1.00  0.00     0.116 C 
ATOM      5  C   UNL     1     -14.094 -18.132  21.812  1.00  0.00     0.102 C 
ATOM      6  C   UNL     1     -13.413 -16.745  19.784  1.00  0.00    -0.007 C 
ATOM      7  N   UNL     1     -14.532 -16.896  22.492  1.00  0.00    -0.298 NA
ATOM      8  C   UNL     1     -14.347 -15.850  20.152  1.00  0.00    -0.026 C 
ATOM      9  C   UNL     1     -15.068 -15.900  21.528  1.00  0.00     0.091 C 
ATOM     10  C   UNL     1     -14.862 -14.837  19.208  1.00  0.00    -0.011 A 
ATOM     11  C   UNL     1     -16.626 -16.063  21.372  1.00  0.00     0.061 C 
ATOM     12  C   UNL     1     -16.227 -14.561  19.395  1.00  0.00     0.010 A 
ATOM     13  C   UNL     1     -14.200 -14.180  18.171  1.00  0.00     0.009 A 
ATOM     14  C   UNL     1     -17.127 -15.081  20.359  1.00  0.00    -0.020 A 
ATOM     15  C   UNL     1     -16.905 -13.666  18.586  1.00  0.00     0.046 A 
ATOM     16  C   UNL     1     -14.893 -13.271  17.357  1.00  0.00     0.003 A 
ATOM     17  C   UNL     1     -18.351 -14.501  20.120  1.00  0.00     0.087 A 
ATOM     18  N   UNL     1     -18.205 -13.646  19.047  1.00  0.00    -0.361 N 
ATOM     19  C   UNL     1     -16.260 -12.995  17.545  1.00  0.00     0.027 A 
ATOM     20  C   UNL     1     -13.447 -16.320  23.293  1.00  0.00     0.106 C 
ATOM     21  H   UNL     1     -18.944 -13.080  18.652  1.00  0.00     0.166 HD
ENDBRANCH   3   4
BRANCH   2  22
ATOM     22  C   UNL     1     -11.396 -20.864  18.789  1.00  0.00     0.116 C 
ATOM     23  C   UNL     1     -11.709 -20.773  17.302  1.00  0.00     0.027 C 
ENDBRANCH   2  22
BRANCH   2  24
ATOM     24  C   UNL     1     -10.269 -18.896  19.832  1.00  0.00     0.116 C 
ATOM     25  C   UNL     1      -9.896 -17.771  18.875  1.00  0.00     0.027 C 
ENDBRANCH   2  24
TORSDOF 3
ENDMDL
MODEL 9
REMARK VINA RESULT:    -7.748      1.556      2.105
REMARK INTER + INTRA:          -9.544
REMARK INTER:                  -9.458
REMARK INTRA:                  -0.086
REMARK UNBOUND:                -0.436
REMARK SMILES CCN(CC)C(=O)[C@@H]1C=C2c3cccc4[nH]cc(c34)C[C@H]2N(C)C1
REMARK SMILES IDX 7 1 3 2 6 3 8 4 24 5 9 6 22 7 10 8 21 9 11 10 20 11 19 12
REMARK SMILES IDX 12 13 18 14 15 15 13 16 17 17 16 18 14 19 23 20 2 22 1 23
REMARK SMILES IDX 4 24 5 25
REMARK H PARENT 16 21
ROOT
ATOM      1  O   UNL     1     -10.704 -18.876  23.690  1.00  0.00    -0.274 OA
ATOM      2  N   UNL     1      -8.867 -19.799  22.687  1.00  0.00    -0.343 N 
ATOM      3  C   UNL     1     -10.195 -19.368  22.673  1.00  0.00     0.230 C 
ENDROOT
BRANCH   3   4
ATOM      4  C   UNL     1     -11.082 -19.480  21.419  1.00  0.00     0.116 C 
ATOM      5  C   UNL     1     -10.479 -18.731  20.215  1.00  0.00     0.102 C 
ATOM      6  C   UNL     1     -12.523 -19.131  21.687  1.00  0.00    -0.007 C 
ATOM      7  N   UNL     1     -11.363 -18.651  19.034  1.00  0.00    -0.298 NA
ATOM      8  C   UNL     1     -13.242 -18.453  20.775  1.00  0.00    -0.026 C 
ATOM      9  C   UNL     1     -12.685 -18.065  19.377  1.00  0.00     0.091 C 
ATOM     10  C   UNL     1     -14.571 -17.894  21.099  1.00  0.00    -0.011 A 
ATOM     11  C   UNL     1     -12.674 -16.507  19.157  1.00  0.00     0.061 C 
ATOM     12  C   UNL     1     -14.817 -16.665  20.463  1.00  0.00     0.010 A 
ATOM     13  C   UNL     1     -15.553 -18.393  21.956  1.00  0.00     0.009 A 
ATOM     14  C   UNL     1     -14.001 -15.941  19.558  1.00  0.00    -0.020 A 
ATOM     15  C   UNL     1     -15.992 -15.963  20.668  1.00  0.00     0.046 A 
ATOM     16  C   UNL     1     -16.744 -17.677  22.154  1.00  0.00     0.003 A 
ATOM     17  C   UNL     1     -14.688 -14.797  19.225  1.00  0.00     0.087 A 
ATOM     18  N   UNL     1     -15.891 -14.821  19.901  1.00  0.00    -0.361 N 
ATOM     19  C   UNL     1     -16.989 -16.447  21.518  1.00  0.00     0.027 A 
ATOM     20  C   UNL     1     -11.518 -19.964  18.401  1.00  0.00     0.106 C 
ATOM     21  H   UNL     1     -16.603 -14.106  19.843  1.00  0.00     0.166 HD
ENDBRANCH   3   4
BRANCH   2  22
ATOM     22  C   UNL     1      -8.116 -19.565  23.927  1.00  0.00     0.116 C 
ATOM     23  C   UNL     1      -7.746 -20.863  24.631  1.00  0.00     0.027 C 
ENDBRANCH   2  22
BRANCH   2  24
ATOM     24  C   UNL     1      -8.085 -20.243  21.524  1.00  0.00     0.116 C 
ATOM     25  C   UNL     1      -6.841 -19.395  21.289  1.00  0.00     0.027 C 
ENDBRANCH   2  24
TORSDOF 3
ENDMDL
MODEL 10
REMARK VINA RESULT:    -7.706      2.201      5.954
REMARK INTER + INTRA:          -9.494
REMARK INTER:                  -9.127
REMARK INTRA:                  -0.366
REMARK UNBOUND:                -0.436
REMARK SMILES CCN(CC)C(=O)[C@@H]1C=C2c3cccc4[nH]cc(c34)C[C@H]2N(C)C1
REMARK SMILES IDX 7 1 3 2 6 3 8 4 24 5 9 6 22 7 10 8 21 9 11 10 20 11 19 12
REMARK SMILES IDX 12 13 18 14 15 15 13 16 17 17 16 18 14 19 23 20 2 22 1 23
REMARK SMILES IDX 4 24 5 25
REMARK H PARENT 16 21
ROOT
ATOM      1  O   UNL     1     -10.953 -20.805  19.441  1.00  0.00    -0.274 OA
ATOM      2  N   UNL     1     -11.558 -18.648  18.986  1.00  0.00    -0.343 N 
ATOM      3  C   UNL     1     -10.996 -19.623  19.811  1.00  0.00     0.230 C 
ENDROOT
BRANCH   3   4
ATOM      4  C   UNL     1     -10.412 -19.292  21.196  1.00  0.00     0.116 C 
ATOM      5  C   UNL     1      -9.560 -20.446  21.757  1.00  0.00     0.102 C 
ATOM      6  C   UNL     1     -11.448 -18.781  22.163  1.00  0.00    -0.007 C 
ATOM      7  N   UNL     1      -9.117 -20.262  23.154  1.00  0.00    -0.298 NA
ATOM      8  C   UNL     1     -11.405 -19.134  23.460  1.00  0.00    -0.026 C 
ATOM      9  C   UNL     1     -10.263 -19.998  24.063  1.00  0.00     0.091 C 
ATOM     10  C   UNL     1     -12.527 -18.847  24.378  1.00  0.00    -0.011 A 
ATOM     11  C   UNL     1     -10.802 -21.343  24.679  1.00  0.00     0.061 C 
ATOM     12  C   UNL     1     -12.721 -19.857  25.336  1.00  0.00     0.010 A 
ATOM     13  C   UNL     1     -13.408 -17.765  24.383  1.00  0.00     0.009 A 
ATOM     14  C   UNL     1     -11.984 -21.049  25.549  1.00  0.00    -0.020 A 
ATOM     15  C   UNL     1     -13.747 -19.792  26.263  1.00  0.00     0.046 A 
ATOM     16  C   UNL     1     -14.442 -17.704  25.330  1.00  0.00     0.003 A 
ATOM     17  C   UNL     1     -12.576 -21.704  26.604  1.00  0.00     0.087 A 
ATOM     18  N   UNL     1     -13.640 -20.933  27.029  1.00  0.00    -0.361 N 
ATOM     19  C   UNL     1     -14.636 -18.715  26.288  1.00  0.00     0.027 A 
ATOM     20  C   UNL     1      -8.111 -19.200  23.254  1.00  0.00     0.106 C 
ATOM     21  H   UNL     1     -14.255 -21.168  27.795  1.00  0.00     0.166 HD
ENDBRANCH   3   4
BRANCH   2  22
ATOM     22  C   UNL     1     -12.010 -19.091  17.661  1.00  0.00     0.116 C 
ATOM     23  C   UNL     1     -11.569 -18.142  16.555  1.00  0.00     0.027 C 
ENDBRANCH   2  22
BRANCH   2  24
ATOM     24  C   UNL     1     -11.529 -17.196  19.213  1.00  0.00     0.116 C 
ATOM     25  C   UNL     1     -12.885 -16.631  19.615  1.00  0.00     0.027 C 
ENDBRANCH   2  24
TORSDOF 3
ENDMDL
MODEL 11
REMARK VINA RESULT:    -7.689      2.843      7.790
REMARK INTER + INTRA:          -9.474
REMARK INTER:                  -9.005
REMARK INTRA:                  -0.469
REMARK UNBOUND:                -0.436
REMARK SMILES CCN(CC)C(=O)[C@@H]1C=C2c3cccc4[nH]cc(c34)C[C@H]2N(C)C1
REMARK SMILES IDX 7 1 3 2 6 3 8 4 24 5 9 6 22 7 10 8 21 9 11 10 20 11 19 12
REMARK SMILES IDX 12 13 18 14 15 15 13 16 17 17 16 18 14 19 23 20 2 22 1 23
REMARK SMILES IDX 4 24 5 25
REMARK H PARENT 16 21
ROOT
ATOM      1  O   UNL     1     -13.934 -14.476  18.711  1.00  0.00    -0.274 OA
ATOM      2  N   UNL     1     -16.123 -14.276  18.083  1.00  0.00    -0.343 N 
ATOM      3  C   UNL     1     -15.094 -14.905  18.784  1.00  0.00     0.230 C 
ENDROOT
BRANCH   3   4
ATOM      4  C   UNL     1     -15.338 -16.142  19.669  1.00  0.00     0.116 C 
ATOM      5  C   UNL     1     -15.395 -15.781  21.166  1.00  0.00     0.102 C 
ATOM      6  C   UNL     1     -14.401 -17.280  19.359  1.00  0.00    -0.007 C 
ATOM      7  N   UNL     1     -15.451 -16.941  22.078  1.00  0.00    -0.298 NA
ATOM      8  C   UNL     1     -13.909 -18.049  20.346  1.00  0.00    -0.026 C 
ATOM      9  C   UNL     1     -14.329 -17.886  21.833  1.00  0.00     0.091 C 
ATOM     10  C   UNL     1     -12.815 -19.013  20.104  1.00  0.00    -0.011 A 
ATOM     11  C   UNL     1     -13.103 -17.540  22.758  1.00  0.00     0.061 C 
ATOM     12  C   UNL     1     -11.932 -19.120  21.191  1.00  0.00     0.010 A 
ATOM     13  C   UNL     1     -12.539 -19.765  18.962  1.00  0.00     0.009 A 
ATOM     14  C   UNL     1     -11.975 -18.476  22.453  1.00  0.00    -0.020 A 
ATOM     15  C   UNL     1     -10.820 -19.943  21.146  1.00  0.00     0.046 A 
ATOM     16  C   UNL     1     -11.412 -20.601  18.926  1.00  0.00     0.003 A 
ATOM     17  C   UNL     1     -10.880 -18.910  23.164  1.00  0.00     0.087 A 
ATOM     18  N   UNL     1     -10.190 -19.798  22.364  1.00  0.00    -0.361 N 
ATOM     19  C   UNL     1     -10.528 -20.708  20.014  1.00  0.00     0.027 A 
ATOM     20  C   UNL     1     -16.744 -17.626  21.983  1.00  0.00     0.106 C 
ATOM     21  H   UNL     1      -9.342 -20.280  22.631  1.00  0.00     0.166 HD
ENDBRANCH   3   4
BRANCH   2  22
ATOM     22  C   UNL     1     -15.763 -13.064  17.338  1.00  0.00     0.116 C 
ATOM     23  C   UNL     1     -16.736 -12.773  16.204  1.00  0.00     0.027 C 
ENDBRANCH   2  22
BRANCH   2  24
ATOM     24  C   UNL     1     -17.560 -14.565  18.203  1.00  0.00     0.116 C 
ATOM     25  C   UNL     1     -18.207 -13.867  19.391  1.00  0.00     0.027 C 
ENDBRANCH   2  24
TORSDOF 3
ENDMDL
MODEL 12
REMARK VINA RESULT:    -7.653      5.029      9.363
REMARK INTER + INTRA:          -9.431
REMARK INTER:                  -9.186
REMARK INTRA:                  -0.245
REMARK UNBOUND:                -0.436
REMARK SMILES CCN(CC)C(=O)[C@@H]1C=C2c3cccc4[nH]cc(c34)C[C@H]2N(C)C1
REMARK SMILES IDX 7 1 3 2 6 3 8 4 24 5 9 6 22 7 10 8 21 9 11 10 20 11 19 12
REMARK SMILES IDX 12 13 18 14 15 15 13 16 17 17 16 18 14 19 23 20 2 22 1 23
REMARK SMILES IDX 4 24 5 25
REMARK H PARENT 16 21
ROOT
ATOM      1  O   UNL     1     -18.280 -16.305  15.790  1.00  0.00    -0.274 OA
ATOM      2  N   UNL     1     -18.220 -14.420  14.498  1.00  0.00    -0.343 N 
ATOM      3  C   UNL     1     -17.671 -15.282  15.448  1.00  0.00     0.230 C 
ENDROOT
BRANCH   3   4
ATOM      4  C   UNL     1     -16.306 -15.015  16.109  1.00  0.00     0.116 C 
ATOM      5  C   UNL     1     -15.193 -15.902  15.520  1.00  0.00     0.102 C 
ATOM      6  C   UNL     1     -16.367 -15.045  17.615  1.00  0.00    -0.007 C 
ATOM      7  N   UNL     1     -13.900 -15.821  16.228  1.00  0.00    -0.298 NA
ATOM      8  C   UNL     1     -15.360 -15.578  18.329  1.00  0.00    -0.026 C 
ATOM      9  C   UNL     1     -14.050 -16.107  17.680  1.00  0.00     0.091 C 
ATOM     10  C   UNL     1     -15.491 -15.836  19.778  1.00  0.00    -0.011 A 
ATOM     11  C   UNL     1     -13.824 -17.637  17.969  1.00  0.00     0.061 C 
ATOM     12  C   UNL     1     -14.819 -17.000  20.189  1.00  0.00     0.010 A 
ATOM     13  C   UNL     1     -16.206 -15.121  20.740  1.00  0.00     0.009 A 
ATOM     14  C   UNL     1     -14.031 -17.900  19.428  1.00  0.00    -0.020 A 
ATOM     15  C   UNL     1     -14.853 -17.433  21.502  1.00  0.00     0.046 A 
ATOM     16  C   UNL     1     -16.231 -15.565  22.071  1.00  0.00     0.003 A 
ATOM     17  C   UNL     1     -13.599 -18.881  20.290  1.00  0.00     0.087 A 
ATOM     18  N   UNL     1     -14.100 -18.588  21.541  1.00  0.00    -0.361 N 
ATOM     19  C   UNL     1     -15.558 -16.730  22.482  1.00  0.00     0.027 A 
ATOM     20  C   UNL     1     -13.260 -14.520  16.013  1.00  0.00     0.106 C 
ATOM     21  H   UNL     1     -13.938 -19.138  22.374  1.00  0.00     0.166 HD
ENDBRANCH   3   4
BRANCH   2  22
ATOM     22  C   UNL     1     -19.492 -14.835  13.894  1.00  0.00     0.116 C 
ATOM     23  C   UNL     1     -20.693 -14.387  14.716  1.00  0.00     0.027 C 
ENDBRANCH   2  22
BRANCH   2  24
ATOM     24  C   UNL     1     -17.546 -13.271  13.875  1.00  0.00     0.116 C 
ATOM     25  C   UNL     1     -18.385 -12.000  13.915  1.00  0.00     0.027 C 
ENDBRANCH   2  24
TORSDOF 3
ENDMDL
MODEL 13
REMARK VINA RESULT:    -7.608      2.495      7.272
REMARK INTER + INTRA:          -9.378
REMARK INTER:                  -8.847
REMARK INTRA:                  -0.531
REMARK UNBOUND:                -0.436
REMARK SMILES CCN(CC)C(=O)[C@@H]1C=C2c3cccc4[nH]cc(c34)C[C@H]2N(C)C1
REMARK SMILES IDX 7 1 3 2 6 3 8 4 24 5 9 6 22 7 10 8 21 9 11 10 20 11 19 12
REMARK SMILES IDX 12 13 18 14 15 15 13 16 17 17 16 18 14 19 23 20 2 22 1 23
REMARK SMILES IDX 4 24 5 25
REMARK H PARENT 16 21
ROOT
ATOM      1  O   UNL     1     -13.380 -14.681  19.482  1.00  0.00    -0.274 OA
ATOM      2  N   UNL     1     -14.311 -15.607  17.610  1.00  0.00    -0.343 N 
ATOM      3  C   UNL     1     -13.938 -15.654  18.954  1.00  0.00     0.230 C 
ENDROOT
BRANCH   3   4
ATOM      4  C   UNL     1     -14.193 -16.890  19.836  1.00  0.00     0.116 C 
ATOM      5  C   UNL     1     -14.786 -16.511  21.206  1.00  0.00     0.102 C 
ATOM      6  C   UNL     1     -12.998 -17.802  19.927  1.00  0.00    -0.007 C 
ATOM      7  N   UNL     1     -14.891 -17.632  22.163  1.00  0.00    -0.298 NA
ATOM      8  C   UNL     1     -12.696 -18.419  21.084  1.00  0.00    -0.026 C 
ATOM      9  C   UNL     1     -13.583 -18.313  22.355  1.00  0.00     0.091 C 
ATOM     10  C   UNL     1     -11.411 -19.125  21.271  1.00  0.00    -0.011 A 
ATOM     11  C   UNL     1     -12.804 -17.683  23.568  1.00  0.00     0.061 C 
ATOM     12  C   UNL     1     -10.909 -19.007  22.579  1.00  0.00     0.010 A 
ATOM     13  C   UNL     1     -10.646 -19.828  20.340  1.00  0.00     0.009 A 
ATOM     14  C   UNL     1     -11.473 -18.356  23.704  1.00  0.00    -0.020 A 
ATOM     15  C   UNL     1      -9.698 -19.568  22.946  1.00  0.00     0.046 A 
ATOM     16  C   UNL     1      -9.422 -20.398  20.721  1.00  0.00     0.003 A 
ATOM     17  C   UNL     1     -10.592 -18.521  24.747  1.00  0.00     0.087 A 
ATOM     18  N   UNL     1      -9.523 -19.256  24.277  1.00  0.00    -0.361 N 
ATOM     19  C   UNL     1      -8.920 -20.279  22.029  1.00  0.00     0.027 A 
ATOM     20  C   UNL     1     -15.924 -18.585  21.750  1.00  0.00     0.106 C 
ATOM     21  H   UNL     1      -8.723 -19.533  24.830  1.00  0.00     0.166 HD
ENDBRANCH   3   4
BRANCH   2  22
ATOM     22  C   UNL     1     -14.075 -14.339  16.908  1.00  0.00     0.116 C 
ATOM     23  C   UNL     1     -15.308 -13.448  16.897  1.00  0.00     0.027 C 
ENDBRANCH   2  22
BRANCH   2  24
ATOM     24  C   UNL     1     -15.122 -16.605  16.898  1.00  0.00     0.116 C 
ATOM     25  C   UNL     1     -14.279 -17.637  16.161  1.00  0.00     0.027 C 
ENDBRANCH   2  24
TORSDOF 3
ENDMDL
MODEL 14
REMARK VINA RESULT:    -7.597      1.395      1.657
REMARK INTER + INTRA:          -9.366
REMARK INTER:                  -8.885
REMARK INTRA:                  -0.481
REMARK UNBOUND:                -0.436
REMARK SMILES CCN(CC)C(=O)[C@@H]1C=C2c3cccc4[nH]cc(c34)C[C@H]2N(C)C1
REMARK SMILES IDX 7 1 3 2 6 3 8 4 24 5 9 6 22 7 10 8 21 9 11 10 20 11 19 12
REMARK SMILES IDX 12 13 18 14 15 15 13 16 17 17 16 18 14 19 23 20 2 22 1 23
REMARK SMILES IDX 4 24 5 25
REMARK H PARENT 16 21
ROOT
ATOM      1  O   UNL     1     -11.036 -17.728  24.408  1.00  0.00    -0.274 OA
ATOM      2  N   UNL     1     -10.771 -19.937  24.939  1.00  0.00    -0.343 N 
ATOM      3  C   UNL     1     -11.167 -18.915  24.075  1.00  0.00     0.230 C 
ENDROOT
BRANCH   3   4
ATOM      4  C   UNL     1     -11.776 -19.199  22.690  1.00  0.00     0.116 C 
ATOM      5  C   UNL     1     -10.801 -18.857  21.547  1.00  0.00     0.102 C 
ATOM      6  C   UNL     1     -13.145 -18.595  22.515  1.00  0.00    -0.007 C 
ATOM      7  N   UNL     1     -11.384 -18.941  20.193  1.00  0.00    -0.298 NA
ATOM      8  C   UNL     1     -13.511 -18.061  21.336  1.00  0.00    -0.026 C 
ATOM      9  C   UNL     1     -12.609 -18.107  20.071  1.00  0.00     0.091 C 
ATOM     10  C   UNL     1     -14.744 -17.257  21.200  1.00  0.00    -0.011 A 
ATOM     11  C   UNL     1     -12.249 -16.666  19.551  1.00  0.00     0.061 C 
ATOM     12  C   UNL     1     -14.606 -16.197  20.288  1.00  0.00     0.010 A 
ATOM     13  C   UNL     1     -15.961 -17.389  21.869  1.00  0.00     0.009 A 
ATOM     14  C   UNL     1     -13.494 -15.838  19.487  1.00  0.00    -0.020 A 
ATOM     15  C   UNL     1     -15.638 -15.306  20.048  1.00  0.00     0.046 A 
ATOM     16  C   UNL     1     -17.004 -16.485  21.617  1.00  0.00     0.003 A 
ATOM     17  C   UNL     1     -13.859 -14.722  18.770  1.00  0.00     0.087 A 
ATOM     18  N   UNL     1     -15.158 -14.411  19.116  1.00  0.00    -0.361 N 
ATOM     19  C   UNL     1     -16.866 -15.424  20.704  1.00  0.00     0.027 A 
ATOM     20  C   UNL     1     -11.657 -20.332  19.820  1.00  0.00     0.106 C 
ATOM     21  H   UNL     1     -15.689 -13.637  18.740  1.00  0.00     0.166 HD
ENDBRANCH   3   4
BRANCH   2  22
ATOM     22  C   UNL     1     -10.138 -19.523  26.197  1.00  0.00     0.116 C 
ATOM     23  C   UNL     1      -8.717 -20.051  26.328  1.00  0.00     0.027 C 
ENDBRANCH   2  22
BRANCH   2  24
ATOM     24  C   UNL     1     -10.710 -21.370  24.619  1.00  0.00     0.116 C 
ATOM     25  C   UNL     1     -11.617 -22.215  25.503  1.00  0.00     0.027 C 
ENDBRANCH   2  24
TORSDOF 3
ENDMDL
MODEL 15
REMARK VINA RESULT:    -7.541      3.566      5.993
REMARK INTER + INTRA:          -9.300
REMARK INTER:                  -9.082
REMARK INTRA:                  -0.218
REMARK UNBOUND:                -0.436
REMARK SMILES CCN(CC)C(=O)[C@@H]1C=C2c3cccc4[nH]cc(c34)C[C@H]2N(C)C1
REMARK SMILES IDX 7 1 3 2 6 3 8 4 24 5 9 6 22 7 10 8 21 9 11 10 20 11 19 12
REMARK SMILES IDX 12 13 18 14 15 15 13 16 17 17 16 18 14 19 23 20 2 22 1 23
REMARK SMILES IDX 4 24 5 25
REMARK H PARENT 16 21
ROOT
ATOM      1  O   UNL     1     -10.867 -17.464  19.165  1.00  0.00    -0.274 OA
ATOM      2  N   UNL     1     -12.841 -18.270  18.338  1.00  0.00    -0.343 N 
ATOM      3  C   UNL     1     -12.096 -17.565  19.285  1.00  0.00     0.230 C 
ENDROOT
BRANCH   3   4
ATOM      4  C   UNL     1     -12.747 -16.887  20.504  1.00  0.00     0.116 C 
ATOM      5  C   UNL     1     -13.123 -17.903  21.600  1.00  0.00     0.102 C 
ATOM      6  C   UNL     1     -13.875 -15.961  20.129  1.00  0.00    -0.007 C 
ATOM      7  N   UNL     1     -13.909 -17.342  22.718  1.00  0.00    -0.298 NA
ATOM      8  C   UNL     1     -14.978 -15.882  20.894  1.00  0.00    -0.026 C 
ATOM      9  C   UNL     1     -15.133 -16.651  22.236  1.00  0.00     0.091 C 
ATOM     10  C   UNL     1     -16.188 -15.169  20.434  1.00  0.00    -0.011 A 
ATOM     11  C   UNL     1     -16.355 -17.642  22.210  1.00  0.00     0.061 C 
ATOM     12  C   UNL     1     -17.378 -15.784  20.861  1.00  0.00     0.010 A 
ATOM     13  C   UNL     1     -16.292 -14.035  19.628  1.00  0.00     0.009 A 
ATOM     14  C   UNL     1     -17.558 -16.931  21.674  1.00  0.00    -0.020 A 
ATOM     15  C   UNL     1     -18.620 -15.289  20.503  1.00  0.00     0.046 A 
ATOM     16  C   UNL     1     -17.555 -13.538  19.273  1.00  0.00     0.003 A 
ATOM     17  C   UNL     1     -18.914 -17.128  21.796  1.00  0.00     0.087 A 
ATOM     18  N   UNL     1     -19.546 -16.128  21.085  1.00  0.00    -0.361 N 
ATOM     19  C   UNL     1     -18.746 -14.153  19.700  1.00  0.00     0.027 A 
ATOM     20  C   UNL     1     -13.090 -16.447  23.542  1.00  0.00     0.106 C 
ATOM     21  H   UNL     1     -20.548 -16.021  21.003  1.00  0.00     0.166 HD
ENDBRANCH   3   4
BRANCH   2  22
ATOM     22  C   UNL     1     -12.101 -18.802  17.187  1.00  0.00     0.116 C 
ATOM     23  C   UNL     1     -11.840 -20.296  17.310  1.00  0.00     0.027 C 
ENDBRANCH   2  22
BRANCH   2  24
ATOM     24  C   UNL     1     -14.307 -18.331  18.256  1.00  0.00     0.116 C 
ATOM     25  C   UNL     1     -14.853 -17.757  16.955  1.00  0.00     0.027 C 
ENDBRANCH   2  24
TORSDOF 3
ENDMDL
MODEL 16
REMARK VINA RESULT:    -7.530      2.681      6.662
REMARK INTER + INTRA:          -9.286
REMARK INTER:                  -9.187
REMARK INTRA:                  -0.099
REMARK UNBOUND:                -0.436
REMARK SMILES CCN(CC)C(=O)[C@@H]1C=C2c3cccc4[nH]cc(c34)C[C@H]2N(C)C1
REMARK SMILES IDX 7 1 3 2 6 3 8 4 24 5 9 6 22 7 10 8 21 9 11 10 20 11 19 12
REMARK SMILES IDX 12 13 18 14 15 15 13 16 17 17 16 18 14 19 23 20 2 22 1 23
REMARK SMILES IDX 4 24 5 25
REMARK H PARENT 16 21
ROOT
ATOM      1  O   UNL     1     -13.951 -15.439  18.138  1.00  0.00    -0.274 OA
ATOM      2  N   UNL     1     -14.366 -16.361  20.189  1.00  0.00    -0.343 N 
ATOM      3  C   UNL     1     -13.767 -16.376  18.928  1.00  0.00     0.230 C 
ENDROOT
BRANCH   3   4
ATOM      4  C   UNL     1     -12.865 -17.532  18.460  1.00  0.00     0.116 C 
ATOM      5  C   UNL     1     -13.337 -18.893  19.007  1.00  0.00     0.102 C 
ATOM      6  C   UNL     1     -11.401 -17.264  18.691  1.00  0.00    -0.007 C 
ATOM      7  N   UNL     1     -12.417 -20.017  18.740  1.00  0.00    -0.298 NA
ATOM      8  C   UNL     1     -10.578 -18.255  19.080  1.00  0.00    -0.026 C 
ATOM      9  C   UNL     1     -11.043 -19.730  19.230  1.00  0.00     0.091 C 
ATOM     10  C   UNL     1      -9.201 -17.980  19.539  1.00  0.00    -0.011 A 
ATOM     11  C   UNL     1     -10.858 -20.261  20.700  1.00  0.00     0.061 C 
ATOM     12  C   UNL     1      -8.789 -18.838  20.573  1.00  0.00     0.010 A 
ATOM     13  C   UNL     1      -8.312 -16.990  19.120  1.00  0.00     0.009 A 
ATOM     14  C   UNL     1      -9.484 -19.913  21.182  1.00  0.00    -0.020 A 
ATOM     15  C   UNL     1      -7.544 -18.717  21.165  1.00  0.00     0.046 A 
ATOM     16  C   UNL     1      -7.049 -16.877  19.722  1.00  0.00     0.003 A 
ATOM     17  C   UNL     1      -8.654 -20.433  22.147  1.00  0.00     0.087 A 
ATOM     18  N   UNL     1      -7.483 -19.703  22.127  1.00  0.00    -0.361 N 
ATOM     19  C   UNL     1      -6.638 -17.735  20.757  1.00  0.00     0.027 A 
ATOM     20  C   UNL     1     -12.405 -20.363  17.315  1.00  0.00     0.106 C 
ATOM     21  H   UNL     1      -6.687 -19.867  22.730  1.00  0.00     0.166 HD
ENDBRANCH   3   4
BRANCH   2  22
ATOM     22  C   UNL     1     -15.141 -15.162  20.532  1.00  0.00     0.116 C 
ATOM     23  C   UNL     1     -16.633 -15.448  20.630  1.00  0.00     0.027 C 
ENDBRANCH   2  22
BRANCH   2  24
ATOM     24  C   UNL     1     -14.109 -17.307  21.284  1.00  0.00     0.116 C 
ATOM     25  C   UNL     1     -13.006 -16.840  22.224  1.00  0.00     0.027 C 
ENDBRANCH   2  24
TORSDOF 3
ENDMDL
MODEL 17
REMARK VINA RESULT:    -7.457      2.208      3.965
REMARK INTER + INTRA:          -9.202
REMARK INTER:                  -8.876
REMARK INTRA:                  -0.326
REMARK UNBOUND:                -0.436
REMARK SMILES CCN(CC)C(=O)[C@@H]1C=C2c3cccc4[nH]cc(c34)C[C@H]2N(C)C1
REMARK SMILES IDX 7 1 3 2 6 3 8 4 24 5 9 6 22 7 10 8 21 9 11 10 20 11 19 12
REMARK SMILES IDX 12 13 18 14 15 15 13 16 17 17 16 18 14 19 23 20 2 22 1 23
REMARK SMILES IDX 4 24 5 25
REMARK H PARENT 16 21
ROOT
ATOM      1  O   UNL     1     -11.489 -21.178  24.405  1.00  0.00    -0.274 OA
ATOM      2  N   UNL     1      -9.394 -20.279  24.221  1.00  0.00    -0.343 N 
ATOM      3  C   UNL     1     -10.781 -20.214  24.079  1.00  0.00     0.230 C 
ENDROOT
BRANCH   3   4
ATOM      4  C   UNL     1     -11.494 -18.968  23.522  1.00  0.00     0.116 C 
ATOM      5  C   UNL     1     -13.021 -19.042  23.709  1.00  0.00     0.102 C 
ATOM      6  C   UNL     1     -11.074 -18.632  22.115  1.00  0.00    -0.007 C 
ATOM      7  N   UNL     1     -13.777 -17.963  23.041  1.00  0.00    -0.298 NA
ATOM      8  C   UNL     1     -11.973 -18.176  21.224  1.00  0.00    -0.026 C 
ATOM      9  C   UNL     1     -13.454 -17.882  21.592  1.00  0.00     0.091 C 
ATOM     10  C   UNL     1     -11.648 -18.063  19.787  1.00  0.00    -0.011 A 
ATOM     11  C   UNL     1     -14.456 -18.757  20.752  1.00  0.00     0.061 C 
ATOM     12  C   UNL     1     -12.743 -18.356  18.955  1.00  0.00     0.010 A 
ATOM     13  C   UNL     1     -10.430 -17.757  19.178  1.00  0.00     0.009 A 
ATOM     14  C   UNL     1     -14.074 -18.694  19.306  1.00  0.00    -0.020 A 
ATOM     15  C   UNL     1     -12.632 -18.342  17.576  1.00  0.00     0.046 A 
ATOM     16  C   UNL     1     -10.327 -17.741  17.779  1.00  0.00     0.003 A 
ATOM     17  C   UNL     1     -14.761 -18.892  18.130  1.00  0.00     0.087 A 
ATOM     18  N   UNL     1     -13.879 -18.674  17.091  1.00  0.00    -0.361 N 
ATOM     19  C   UNL     1     -11.423 -18.034  16.947  1.00  0.00     0.027 A 
ATOM     20  C   UNL     1     -13.553 -16.674  23.702  1.00  0.00     0.106 C 
ATOM     21  H   UNL     1     -14.112 -18.745  16.109  1.00  0.00     0.166 HD
ENDBRANCH   3   4
BRANCH   2  22
ATOM     22  C   UNL     1      -8.855 -21.498  24.835  1.00  0.00     0.116 C 
ATOM     23  C   UNL     1      -7.856 -21.193  25.942  1.00  0.00     0.027 C 
ENDBRANCH   2  22
BRANCH   2  24
ATOM     24  C   UNL     1      -8.450 -19.167  24.038  1.00  0.00     0.116 C 
ATOM     25  C   UNL     1      -7.584 -19.324  22.795  1.00  0.00     0.027 C 
ENDBRANCH   2  24
TORSDOF 3
ENDMDL
MODEL 18
REMARK VINA RESULT:    -7.447      2.565      6.499
REMARK INTER + INTRA:          -9.189
REMARK INTER:                  -8.694
REMARK INTRA:                  -0.495
REMARK UNBOUND:                -0.436
REMARK SMILES CCN(CC)C(=O)[C@@H]1C=C2c3cccc4[nH]cc(c34)C[C@H]2N(C)C1
REMARK SMILES IDX 7 1 3 2 6 3 8 4 24 5 9 6 22 7 10 8 21 9 11 10 20 11 19 12
REMARK SMILES IDX 12 13 18 14 15 15 13 16 17 17 16 18 14 19 23 20 2 22 1 23
REMARK SMILES IDX 4 24 5 25
REMARK H PARENT 16 21
ROOT
ATOM      1  O   UNL     1     -13.844 -19.675  18.982  1.00  0.00    -0.274 OA
ATOM      2  N   UNL     1     -13.353 -17.936  17.581  1.00  0.00    -0.343 N 
ATOM      3  C   UNL     1     -13.112 -18.711  18.716  1.00  0.00     0.230 C 
ENDROOT
BRANCH   3   4
ATOM      4  C   UNL     1     -11.949 -18.417  19.681  1.00  0.00     0.116 C 
ATOM      5  C   UNL     1     -10.826 -19.466  19.572  1.00  0.00     0.102 C 
ATOM      6  C   UNL     1     -12.407 -18.169  21.095  1.00  0.00    -0.007 C 
ATOM      7  N   UNL     1      -9.764 -19.341  20.591  1.00  0.00    -0.298 NA
ATOM      8  C   UNL     1     -11.689 -18.627  22.136  1.00  0.00    -0.026 C 
ATOM      9  C   UNL     1     -10.322 -19.348  21.969  1.00  0.00     0.091 C 
ATOM     10  C   UNL     1     -12.225 -18.609  23.513  1.00  0.00    -0.011 A 
ATOM     11  C   UNL     1     -10.352 -20.811  22.546  1.00  0.00     0.061 C 
ATOM     12  C   UNL     1     -11.818 -19.719  24.272  1.00  0.00     0.010 A 
ATOM     13  C   UNL     1     -13.083 -17.687  24.114  1.00  0.00     0.009 A 
ATOM     14  C   UNL     1     -10.964 -20.791  23.912  1.00  0.00    -0.020 A 
ATOM     15  C   UNL     1     -12.245 -19.904  25.576  1.00  0.00     0.046 A 
ATOM     16  C   UNL     1     -13.507 -17.879  25.437  1.00  0.00     0.003 A 
ATOM     17  C   UNL     1     -10.886 -21.626  25.003  1.00  0.00     0.087 A 
ATOM     18  N   UNL     1     -11.663 -21.078  26.004  1.00  0.00    -0.361 N 
ATOM     19  C   UNL     1     -13.100 -18.990  26.196  1.00  0.00     0.027 A 
ATOM     20  C   UNL     1      -8.949 -18.145  20.361  1.00  0.00     0.106 C 
ATOM     21  H   UNL     1     -11.788 -21.477  26.924  1.00  0.00     0.166 HD
ENDBRANCH   3   4
BRANCH   2  22
ATOM     22  C   UNL     1     -14.450 -18.374  16.709  1.00  0.00     0.116 C 
ATOM     23  C   UNL     1     -15.297 -17.208  16.220  1.00  0.00     0.027 C 
ENDBRANCH   2  22
BRANCH   2  24
ATOM     24  C   UNL     1     -12.481 -16.877  17.051  1.00  0.00     0.116 C 
ATOM     25  C   UNL     1     -11.446 -17.401  16.064  1.00  0.00     0.027 C 
ENDBRANCH   2  24
TORSDOF 3
ENDMDL
MODEL 19
REMARK VINA RESULT:    -7.434      2.376      3.485
REMARK INTER + INTRA:          -9.175
REMARK INTER:                  -8.994
REMARK INTRA:                  -0.181
REMARK UNBOUND:                -0.436
REMARK SMILES CCN(CC)C(=O)[C@@H]1C=C2c3cccc4[nH]cc(c34)C[C@H]2N(C)C1
REMARK SMILES IDX 7 1 3 2 6 3 8 4 24 5 9 6 22 7 10 8 21 9 11 10 20 11 19 12
REMARK SMILES IDX 12 13 18 14 15 15 13 16 17 17 16 18 14 19 23 20 2 22 1 23
REMARK SMILES IDX 4 24 5 25
REMARK H PARENT 16 21
ROOT
ATOM      1  O   UNL     1     -12.742 -16.792  23.493  1.00  0.00    -0.274 OA
ATOM      2  N   UNL     1     -11.615 -18.782  23.462  1.00  0.00    -0.343 N 
ATOM      3  C   UNL     1     -12.525 -17.871  22.923  1.00  0.00     0.230 C 
ENDROOT
BRANCH   3   4
ATOM      4  C   UNL     1     -13.293 -18.151  21.618  1.00  0.00     0.116 C 
ATOM      5  C   UNL     1     -12.350 -18.291  20.409  1.00  0.00     0.102 C 
ATOM      6  C   UNL     1     -14.430 -17.189  21.389  1.00  0.00    -0.007 C 
ATOM      7  N   UNL     1     -13.032 -18.385  19.102  1.00  0.00    -0.298 NA
ATOM      8  C   UNL     1     -14.709 -16.744  20.150  1.00  0.00    -0.026 C 
ATOM      9  C   UNL     1     -13.959 -17.243  18.884  1.00  0.00     0.091 C 
ATOM     10  C   UNL     1     -15.653 -15.630  19.924  1.00  0.00    -0.011 A 
ATOM     11  C   UNL     1     -13.227 -16.072  18.131  1.00  0.00     0.061 C 
ATOM     12  C   UNL     1     -15.276 -14.804  18.851  1.00  0.00     0.010 A 
ATOM     13  C   UNL     1     -16.801 -15.287  20.639  1.00  0.00     0.009 A 
ATOM     14  C   UNL     1     -14.171 -14.920  17.971  1.00  0.00    -0.020 A 
ATOM     15  C   UNL     1     -16.011 -13.685  18.502  1.00  0.00     0.046 A 
ATOM     16  C   UNL     1     -17.544 -14.153  20.276  1.00  0.00     0.003 A 
ATOM     17  C   UNL     1     -14.241 -13.861  17.096  1.00  0.00     0.087 A 
ATOM     18  N   UNL     1     -15.359 -13.122  17.426  1.00  0.00    -0.361 N 
ATOM     19  C   UNL     1     -17.165 -13.327  19.202  1.00  0.00     0.027 A 
ATOM     20  C   UNL     1     -13.733 -19.665  18.963  1.00  0.00     0.106 C 
ATOM     21  H   UNL     1     -15.662 -12.285  16.946  1.00  0.00     0.166 HD
ENDBRANCH   3   4
BRANCH   2  22
ATOM     22  C   UNL     1     -10.899 -18.355  24.670  1.00  0.00     0.116 C 
ATOM     23  C   UNL     1     -11.193 -19.253  25.863  1.00  0.00     0.027 C 
ENDBRANCH   2  22
BRANCH   2  24
ATOM     24  C   UNL     1     -11.134 -20.013  22.819  1.00  0.00     0.116 C 
ATOM     25  C   UNL     1      -9.651 -19.962  22.476  1.00  0.00     0.027 C 
ENDBRANCH   2  24
TORSDOF 3
ENDMDL
MODEL 20
REMARK VINA RESULT:    -7.413      1.991      2.861
REMARK INTER + INTRA:          -9.150
REMARK INTER:                  -8.761
REMARK INTRA:                  -0.388
REMARK UNBOUND:                -0.436
REMARK SMILES CCN(CC)C(=O)[C@@H]1C=C2c3cccc4[nH]cc(c34)C[C@H]2N(C)C1
REMARK SMILES IDX 7 1 3 2 6 3 8 4 24 5 9 6 22 7 10 8 21 9 11 10 20 11 19 12
REMARK SMILES IDX 12 13 18 14 15 15 13 16 17 17 16 18 14 19 23 20 2 22 1 23
REMARK SMILES IDX 4 24 5 25
REMARK H PARENT 16 21
ROOT
ATOM      1  O   UNL     1     -12.196 -17.125  24.020  1.00  0.00    -0.274 OA
ATOM      2  N   UNL     1     -10.928 -19.026  23.920  1.00  0.00    -0.343 N 
ATOM      3  C   UNL     1     -11.907 -18.168  23.416  1.00  0.00     0.230 C 
ENDROOT
BRANCH   3   4
ATOM      4  C   UNL     1     -12.665 -18.463  22.109  1.00  0.00     0.116 C 
ATOM      5  C   UNL     1     -11.815 -18.152  20.863  1.00  0.00     0.102 C 
ATOM      6  C   UNL     1     -14.037 -17.842  22.073  1.00  0.00    -0.007 C 
ATOM      7  N   UNL     1     -12.542 -18.247  19.581  1.00  0.00    -0.298 NA
ATOM      8  C   UNL     1     -14.522 -17.321  20.932  1.00  0.00    -0.026 C 
ATOM      9  C   UNL     1     -13.762 -17.398  19.578  1.00  0.00     0.091 C 
ATOM     10  C   UNL     1     -15.752 -16.502  20.917  1.00  0.00    -0.011 A 
ATOM     11  C   UNL     1     -13.442 -15.970  18.999  1.00  0.00     0.061 C 
ATOM     12  C   UNL     1     -15.701 -15.457  19.979  1.00  0.00     0.010 A 
ATOM     13  C   UNL     1     -16.892 -16.607  21.715  1.00  0.00     0.009 A 
ATOM     14  C   UNL     1     -14.677 -15.125  19.057  1.00  0.00    -0.020 A 
ATOM     15  C   UNL     1     -16.741 -14.555  19.838  1.00  0.00     0.046 A 
ATOM     16  C   UNL     1     -17.944 -15.691  21.563  1.00  0.00     0.003 A 
ATOM     17  C   UNL     1     -15.103 -14.014  18.366  1.00  0.00     0.087 A 
ATOM     18  N   UNL     1     -16.353 -13.680  18.846  1.00  0.00    -0.361 N 
ATOM     19  C   UNL     1     -17.892 -14.646  20.624  1.00  0.00     0.027 A 
ATOM     20  C   UNL     1     -12.870 -19.639  19.261  1.00  0.00     0.106 C 
ATOM     21  H   UNL     1     -16.912 -12.904  18.516  1.00  0.00     0.166 HD
ENDBRANCH   3   4
BRANCH   2  22
ATOM     22  C   UNL     1     -10.233 -18.584  25.135  1.00  0.00     0.116 C 
ATOM     23  C   UNL     1     -10.727 -19.310  26.378  1.00  0.00     0.027 C 
ENDBRANCH   2  22
BRANCH   2  24
ATOM     24  C   UNL     1     -10.365 -20.199  23.236  1.00  0.00     0.116 C 
ATOM     25  C   UNL     1      -8.941 -19.972  22.745  1.00  0.00     0.027 C 
ENDBRANCH   2  24
TORSDOF 3
ENDMDL
