MODEL 1
REMARK VINA RESULT:    -9.785      0.000      0.000
REMARK INTER + INTRA:         -10.638
REMARK INTER:                 -11.501
REMARK INTRA:                   0.863
REMARK UNBOUND:                 0.863
REMARK SMILES CCN(CC)C(=O)[C@@H]1C=C2c3cccc4[nH]cc(c34)C[C@H]2N(C)C1
REMARK SMILES IDX 7 1 3 2 6 3 8 4 24 5 9 6 22 7 10 8 21 9 11 10 20 11 19 12
REMARK SMILES IDX 12 13 18 14 15 15 13 16 17 17 16 18 14 19 23 20 2 22 1 23
REMARK SMILES IDX 4 24 5 25
REMARK H PARENT 16 21
ROOT
ATOM      1  O   UNL     1      99.295 122.923  78.060  1.00  0.00    -0.274 OA
ATOM      2  N   UNL     1      98.946 122.376  80.253  1.00  0.00    -0.343 N 
ATOM      3  C   UNL     1      99.593 122.208  79.027  1.00  0.00     0.230 C 
ENDROOT
BRANCH   3   4
ATOM      4  C   UNL     1     100.689 121.148  78.815  1.00  0.00     0.116 C 
ATOM      5  C   UNL     1     100.644 120.544  77.398  1.00  0.00     0.102 C 
ATOM      6  C   UNL     1     100.726 120.114  79.910  1.00  0.00    -0.007 C 
ATOM      7  N   UNL     1     101.553 119.400  77.186  1.00  0.00    -0.298 NA
ATOM      8  C   UNL     1     100.979 118.824  79.624  1.00  0.00    -0.026 C 
ATOM      9  C   UNL     1     101.332 118.329  78.193  1.00  0.00     0.091 C 
ATOM     10  C   UNL     1     100.790 117.758  80.629  1.00  0.00    -0.011 A 
ATOM     11  C   UNL     1     100.292 117.275  77.660  1.00  0.00     0.061 C 
ATOM     12  C   UNL     1     100.322 116.557  80.070  1.00  0.00     0.010 A 
ATOM     13  C   UNL     1     100.971 117.807  82.012  1.00  0.00     0.009 A 
ATOM     14  C   UNL     1     100.053 116.239  78.715  1.00  0.00    -0.020 A 
ATOM     15  C   UNL     1     100.047 115.449  80.853  1.00  0.00     0.046 A 
ATOM     16  C   UNL     1     100.695 116.677  82.798  1.00  0.00     0.003 A 
ATOM     17  C   UNL     1      99.608 114.938  78.688  1.00  0.00     0.087 A 
ATOM     18  N   UNL     1      99.610 114.470  79.986  1.00  0.00    -0.361 N 
ATOM     19  C   UNL     1     100.226 115.476  82.238  1.00  0.00     0.027 A 
ATOM     20  C   UNL     1     102.954 119.832  77.179  1.00  0.00     0.106 C 
ATOM     21  H   UNL     1      99.334 113.538  80.267  1.00  0.00     0.166 HD
ENDBRANCH   3   4
BRANCH   2  22
ATOM     22  C   UNL     1      97.975 123.473  80.336  1.00  0.00     0.116 C 
ATOM     23  C   UNL     1      96.813 123.289  79.370  1.00  0.00     0.027 C 
ENDBRANCH   2  22
BRANCH   2  24
ATOM     24  C   UNL     1      99.306 121.725  81.521  1.00  0.00     0.116 C 
ATOM     25  C   UNL     1      98.101 121.464  82.415  1.00  0.00     0.027 C 
ENDBRANCH   2  24
TORSDOF 3
ENDMDL
MODEL 2
REMARK VINA RESULT:    -8.995      1.230      1.838
REMARK INTER + INTRA:          -9.710
REMARK INTER:                 -10.429
REMARK INTRA:                   0.720
REMARK UNBOUND:                 0.863
REMARK SMILES CCN(CC)C(=O)[C@@H]1C=C2c3cccc4[nH]cc(c34)C[C@H]2N(C)C1
REMARK SMILES IDX 7 1 3 2 6 3 8 4 24 5 9 6 22 7 10 8 21 9 11 10 20 11 19 12
REMARK SMILES IDX 12 13 18 14 15 15 13 16 17 17 16 18 14 19 23 20 2 22 1 23
REMARK SMILES IDX 4 24 5 25
REMARK H PARENT 16 21
ROOT
ATOM      1  O   UNL     1      99.253 121.925  81.501  1.00  0.00    -0.274 OA
ATOM      2  N   UNL     1      99.020 122.605  79.331  1.00  0.00    -0.343 N 
ATOM      3  C   UNL     1      99.587 121.794  80.315  1.00  0.00     0.230 C 
ENDROOT
BRANCH   3   4
ATOM      4  C   UNL     1     100.636 120.717  79.988  1.00  0.00     0.116 C 
ATOM      5  C   UNL     1     100.586 120.288  78.509  1.00  0.00     0.102 C 
ATOM      6  C   UNL     1     100.609 119.559  80.952  1.00  0.00    -0.007 C 
ATOM      7  N   UNL     1     101.445 119.135  78.171  1.00  0.00    -0.298 NA
ATOM      8  C   UNL     1     100.807 118.302  80.517  1.00  0.00    -0.026 C 
ATOM      9  C   UNL     1     101.159 117.964  79.041  1.00  0.00     0.091 C 
ATOM     10  C   UNL     1     100.555 117.134  81.386  1.00  0.00    -0.011 A 
ATOM     11  C   UNL     1     100.081 117.031  78.376  1.00  0.00     0.061 C 
ATOM     12  C   UNL     1     100.041 116.031  80.683  1.00  0.00     0.010 A 
ATOM     13  C   UNL     1     100.717 117.010  82.767  1.00  0.00     0.009 A 
ATOM     14  C   UNL     1      99.779 115.890  79.297  1.00  0.00    -0.020 A 
ATOM     15  C   UNL     1      99.704 114.853  81.325  1.00  0.00     0.046 A 
ATOM     16  C   UNL     1     100.377 115.810  83.410  1.00  0.00     0.003 A 
ATOM     17  C   UNL     1      99.276 114.623  79.111  1.00  0.00     0.087 A 
ATOM     18  N   UNL     1      99.236 114.005  80.344  1.00  0.00    -0.361 N 
ATOM     19  C   UNL     1      99.862 114.707  82.705  1.00  0.00     0.027 A 
ATOM     20  C   UNL     1     102.864 119.499  78.230  1.00  0.00     0.106 C 
ATOM     21  H   UNL     1      98.914 113.061  80.508  1.00  0.00     0.166 HD
ENDBRANCH   3   4
BRANCH   2  22
ATOM     22  C   UNL     1      97.977 123.540  79.773  1.00  0.00     0.116 C 
ATOM     23  C   UNL     1      96.670 123.344  79.019  1.00  0.00     0.027 C 
ENDBRANCH   2  22
BRANCH   2  24
ATOM     24  C   UNL     1      99.189 122.456  77.878  1.00  0.00     0.116 C 
ATOM     25  C   UNL     1      99.571 123.759  77.189  1.00  0.00     0.027 C 
ENDBRANCH   2  24
TORSDOF 3
ENDMDL
MODEL 3
REMARK VINA RESULT:    -8.455      2.943      6.404
REMARK INTER + INTRA:          -9.075
REMARK INTER:                  -8.723
REMARK INTRA:                  -0.352
REMARK UNBOUND:                 0.863
REMARK SMILES CCN(CC)C(=O)[C@@H]1C=C2c3cccc4[nH]cc(c34)C[C@H]2N(C)C1
REMARK SMILES IDX 7 1 3 2 6 3 8 4 24 5 9 6 22 7 10 8 21 9 11 10 20 11 19 12
REMARK SMILES IDX 12 13 18 14 15 15 13 16 17 17 16 18 14 19 23 20 2 22 1 23
REMARK SMILES IDX 4 24 5 25
REMARK H PARENT 16 21
ROOT
ATOM      1  O   UNL     1     104.718 118.691  79.075  1.00  0.00    -0.274 OA
ATOM      2  N   UNL     1     105.000 116.505  78.468  1.00  0.00    -0.343 N 
ATOM      3  C   UNL     1     104.201 117.616  78.740  1.00  0.00     0.230 C 
ENDROOT
BRANCH   3   4
ATOM      4  C   UNL     1     102.665 117.568  78.641  1.00  0.00     0.116 C 
ATOM      5  C   UNL     1     102.158 118.040  77.265  1.00  0.00     0.102 C 
ATOM      6  C   UNL     1     101.981 118.244  79.801  1.00  0.00    -0.007 C 
ATOM      7  N   UNL     1     100.691 118.185  77.166  1.00  0.00    -0.298 NA
ATOM      8  C   UNL     1     100.860 118.963  79.609  1.00  0.00    -0.026 C 
ATOM      9  C   UNL     1     100.154 119.074  78.229  1.00  0.00     0.091 C 
ATOM     10  C   UNL     1     100.303 119.825  80.671  1.00  0.00    -0.011 A 
ATOM     11  C   UNL     1     100.080 120.561  77.721  1.00  0.00     0.061 C 
ATOM     12  C   UNL     1      99.726 121.005  80.171  1.00  0.00     0.010 A 
ATOM     13  C   UNL     1     100.315 119.641  82.054  1.00  0.00     0.009 A 
ATOM     14  C   UNL     1      99.583 121.438  78.829  1.00  0.00    -0.020 A 
ATOM     15  C   UNL     1      99.182 121.961  81.010  1.00  0.00     0.046 A 
ATOM     16  C   UNL     1      99.757 120.613  82.899  1.00  0.00     0.003 A 
ATOM     17  C   UNL     1      98.957 122.662  78.866  1.00  0.00     0.087 A 
ATOM     18  N   UNL     1      98.718 122.968  80.191  1.00  0.00    -0.361 N 
ATOM     19  C   UNL     1      99.180 121.794  82.397  1.00  0.00     0.027 A 
ATOM     20  C   UNL     1     100.028 116.877  77.190  1.00  0.00     0.106 C 
ATOM     21  H   UNL     1      98.264 123.809  80.518  1.00  0.00     0.166 HD
ENDBRANCH   3   4
BRANCH   2  22
ATOM     22  C   UNL     1     106.452 116.712  78.529  1.00  0.00     0.116 C 
ATOM     23  C   UNL     1     107.065 116.128  79.794  1.00  0.00     0.027 C 
ENDBRANCH   2  22
BRANCH   2  24
ATOM     24  C   UNL     1     104.547 115.225  77.904  1.00  0.00     0.116 C 
ATOM     25  C   UNL     1     104.471 114.113  78.942  1.00  0.00     0.027 C 
ENDBRANCH   2  24
TORSDOF 3
ENDMDL
MODEL 4
REMARK VINA RESULT:    -8.041      2.943      5.747
REMARK INTER + INTRA:          -8.588
REMARK INTER:                  -9.163
REMARK INTRA:                   0.575
REMARK UNBOUND:                 0.863
REMARK SMILES CCN(CC)C(=O)[C@@H]1C=C2c3cccc4[nH]cc(c34)C[C@H]2N(C)C1
REMARK SMILES IDX 7 1 3 2 6 3 8 4 24 5 9 6 22 7 10 8 21 9 11 10 20 11 19 12
REMARK SMILES IDX 12 13 18 14 15 15 13 16 17 17 16 18 14 19 23 20 2 22 1 23
REMARK SMILES IDX 4 24 5 25
REMARK H PARENT 16 21
ROOT
ATOM      1  O   UNL     1     104.775 118.885  77.896  1.00  0.00    -0.274 OA
ATOM      2  N   UNL     1     104.344 116.644  78.043  1.00  0.00    -0.343 N 
ATOM      3  C   UNL     1     103.966 117.983  78.158  1.00  0.00     0.230 C 
ENDROOT
BRANCH   3   4
ATOM      4  C   UNL     1     102.555 118.404  78.606  1.00  0.00     0.116 C 
ATOM      5  C   UNL     1     102.572 119.709  79.424  1.00  0.00     0.102 C 
ATOM      6  C   UNL     1     101.792 117.286  79.269  1.00  0.00    -0.007 C 
ATOM      7  N   UNL     1     101.275 120.072  80.032  1.00  0.00    -0.298 NA
ATOM      8  C   UNL     1     100.993 117.535  80.322  1.00  0.00    -0.026 C 
ATOM      9  C   UNL     1     100.730 118.967  80.864  1.00  0.00     0.091 C 
ATOM     10  C   UNL     1     100.422 116.441  81.135  1.00  0.00    -0.011 A 
ATOM     11  C   UNL     1     101.188 119.125  82.361  1.00  0.00     0.061 C 
ATOM     12  C   UNL     1     100.330 116.765  82.499  1.00  0.00     0.010 A 
ATOM     13  C   UNL     1     100.021 115.164  80.740  1.00  0.00     0.009 A 
ATOM     14  C   UNL     1     100.666 117.973  83.162  1.00  0.00    -0.020 A 
ATOM     15  C   UNL     1      99.856 115.859  83.431  1.00  0.00     0.046 A 
ATOM     16  C   UNL     1      99.537 114.253  81.690  1.00  0.00     0.003 A 
ATOM     17  C   UNL     1     100.398 117.785  84.498  1.00  0.00     0.087 A 
ATOM     18  N   UNL     1      99.907 116.504  84.649  1.00  0.00    -0.361 N 
ATOM     19  C   UNL     1      99.445 114.578  83.055  1.00  0.00     0.027 A 
ATOM     20  C   UNL     1     100.310 120.485  79.009  1.00  0.00     0.106 C 
ATOM     21  H   UNL     1      99.621 116.093  85.527  1.00  0.00     0.166 HD
ENDBRANCH   3   4
BRANCH   2  22
ATOM     22  C   UNL     1     105.697 116.387  77.533  1.00  0.00     0.116 C 
ATOM     23  C   UNL     1     106.722 116.274  78.652  1.00  0.00     0.027 C 
ENDBRANCH   2  22
BRANCH   2  24
ATOM     24  C   UNL     1     103.456 115.478  78.154  1.00  0.00     0.116 C 
ATOM     25  C   UNL     1     104.036 114.373  79.026  1.00  0.00     0.027 C 
ENDBRANCH   2  24
TORSDOF 3
ENDMDL
MODEL 5
REMARK VINA RESULT:    -7.914      3.165      6.280
REMARK INTER + INTRA:          -8.438
REMARK INTER:                  -8.471
REMARK INTRA:                   0.033
REMARK UNBOUND:                 0.863
REMARK SMILES CCN(CC)C(=O)[C@@H]1C=C2c3cccc4[nH]cc(c34)C[C@H]2N(C)C1
REMARK SMILES IDX 7 1 3 2 6 3 8 4 24 5 9 6 22 7 10 8 21 9 11 10 20 11 19 12
REMARK SMILES IDX 12 13 18 14 15 15 13 16 17 17 16 18 14 19 23 20 2 22 1 23
REMARK SMILES IDX 4 24 5 25
REMARK H PARENT 16 21
ROOT
ATOM      1  O   UNL     1     104.462 114.462  79.296  1.00  0.00    -0.274 OA
ATOM      2  N   UNL     1     104.660 116.407  78.110  1.00  0.00    -0.343 N 
ATOM      3  C   UNL     1     103.909 115.455  78.803  1.00  0.00     0.230 C 
ENDROOT
BRANCH   3   4
ATOM      4  C   UNL     1     102.386 115.585  78.988  1.00  0.00     0.116 C 
ATOM      5  C   UNL     1     101.637 115.586  77.642  1.00  0.00     0.102 C 
ATOM      6  C   UNL     1     102.000 116.725  79.894  1.00  0.00    -0.007 C 
ATOM      7  N   UNL     1     100.193 115.883  77.740  1.00  0.00    -0.298 NA
ATOM      8  C   UNL     1     100.912 117.470  79.629  1.00  0.00    -0.026 C 
ATOM      9  C   UNL     1      99.944 117.164  78.452  1.00  0.00     0.091 C 
ATOM     10  C   UNL     1     100.641 118.729  80.355  1.00  0.00    -0.011 A 
ATOM     11  C   UNL     1      99.861 118.358  77.430  1.00  0.00     0.061 C 
ATOM     12  C   UNL     1     100.048 119.710  79.542  1.00  0.00     0.010 A 
ATOM     13  C   UNL     1     100.927 119.063  81.678  1.00  0.00     0.009 A 
ATOM     14  C   UNL     1      99.659 119.637  78.181  1.00  0.00    -0.020 A 
ATOM     15  C   UNL     1      99.751 120.972  80.026  1.00  0.00     0.046 A 
ATOM     16  C   UNL     1     100.617 120.343  82.164  1.00  0.00     0.003 A 
ATOM     17  C   UNL     1      99.133 120.864  77.847  1.00  0.00     0.087 A 
ATOM     18  N   UNL     1      99.192 121.662  78.972  1.00  0.00    -0.361 N 
ATOM     19  C   UNL     1     100.025 121.325  81.350  1.00  0.00     0.027 A 
ATOM     20  C   UNL     1      99.469 114.779  78.376  1.00  0.00     0.106 C 
ATOM     21  H   UNL     1      98.869 122.619  79.020  1.00  0.00     0.166 HD
ENDBRANCH   3   4
BRANCH   2  22
ATOM     22  C   UNL     1     106.112 116.196  78.074  1.00  0.00     0.116 C 
ATOM     23  C   UNL     1     106.780 116.556  79.394  1.00  0.00     0.027 C 
ENDBRANCH   2  22
BRANCH   2  24
ATOM     24  C   UNL     1     104.177 117.707  77.622  1.00  0.00     0.116 C 
ATOM     25  C   UNL     1     104.234 118.797  78.684  1.00  0.00     0.027 C 
ENDBRANCH   2  24
TORSDOF 3
ENDMDL
MODEL 6
REMARK VINA RESULT:    -7.865      1.312      1.559
REMARK INTER + INTRA:          -8.381
REMARK INTER:                  -9.517
REMARK INTRA:                   1.136
REMARK UNBOUND:                 0.863
REMARK SMILES CCN(CC)C(=O)[C@@H]1C=C2c3cccc4[nH]cc(c34)C[C@H]2N(C)C1
REMARK SMILES IDX 7 1 3 2 6 3 8 4 24 5 9 6 22 7 10 8 21 9 11 10 20 11 19 12
REMARK SMILES IDX 12 13 18 14 15 15 13 16 17 17 16 18 14 19 23 20 2 22 1 23
REMARK SMILES IDX 4 24 5 25
REMARK H PARENT 16 21
ROOT
ATOM      1  O   UNL     1      99.889 122.201  79.549  1.00  0.00    -0.274 OA
ATOM      2  N   UNL     1      99.095 121.563  81.596  1.00  0.00    -0.343 N 
ATOM      3  C   UNL     1      99.958 121.420  80.508  1.00  0.00     0.230 C 
ENDROOT
BRANCH   3   4
ATOM      4  C   UNL     1     101.021 120.308  80.442  1.00  0.00     0.116 C 
ATOM      5  C   UNL     1     101.397 119.951  78.992  1.00  0.00     0.102 C 
ATOM      6  C   UNL     1     100.671 119.111  81.287  1.00  0.00    -0.007 C 
ATOM      7  N   UNL     1     102.279 118.774  78.855  1.00  0.00    -0.298 NA
ATOM      8  C   UNL     1     100.948 117.867  80.857  1.00  0.00    -0.026 C 
ATOM      9  C   UNL     1     101.710 117.580  79.533  1.00  0.00     0.091 C 
ATOM     10  C   UNL     1     100.410 116.674  81.544  1.00  0.00    -0.011 A 
ATOM     11  C   UNL     1     100.846 116.732  78.527  1.00  0.00     0.061 C 
ATOM     12  C   UNL     1     100.092 115.631  80.658  1.00  0.00     0.010 A 
ATOM     13  C   UNL     1     100.152 116.479  82.902  1.00  0.00     0.009 A 
ATOM     14  C   UNL     1     100.248 115.566  79.251  1.00  0.00    -0.020 A 
ATOM     15  C   UNL     1      99.541 114.442  81.103  1.00  0.00     0.046 A 
ATOM     16  C   UNL     1      99.598 115.269  83.346  1.00  0.00     0.003 A 
ATOM     17  C   UNL     1      99.781 114.335  78.852  1.00  0.00     0.087 A 
ATOM     18  N   UNL     1      99.357 113.664  79.980  1.00  0.00    -0.361 N 
ATOM     19  C   UNL     1      99.278 114.226  82.458  1.00  0.00     0.027 A 
ATOM     20  C   UNL     1     103.628 119.065  79.349  1.00  0.00     0.106 C 
ATOM     21  H   UNL     1      98.969 112.730  79.988  1.00  0.00     0.166 HD
ENDBRANCH   3   4
BRANCH   2  22
ATOM     22  C   UNL     1      98.181 122.711  81.561  1.00  0.00     0.116 C 
ATOM     23  C   UNL     1      97.453 122.828  80.229  1.00  0.00     0.027 C 
ENDBRANCH   2  22
BRANCH   2  24
ATOM     24  C   UNL     1      99.169 120.826  82.866  1.00  0.00     0.116 C 
ATOM     25  C   UNL     1      98.160 121.318  83.895  1.00  0.00     0.027 C 
ENDBRANCH   2  24
TORSDOF 3
ENDMDL
MODEL 7
REMARK VINA RESULT:    -7.596      2.154      6.752
REMARK INTER + INTRA:          -8.065
REMARK INTER:                  -7.928
REMARK INTRA:                  -0.137
REMARK UNBOUND:                 0.863
REMARK SMILES CCN(CC)C(=O)[C@@H]1C=C2c3cccc4[nH]cc(c34)C[C@H]2N(C)C1
REMARK SMILES IDX 7 1 3 2 6 3 8 4 24 5 9 6 22 7 10 8 21 9 11 10 20 11 19 12
REMARK SMILES IDX 12 13 18 14 15 15 13 16 17 17 16 18 14 19 23 20 2 22 1 23
REMARK SMILES IDX 4 24 5 25
REMARK H PARENT 16 21
ROOT
ATOM      1  O   UNL     1      99.580 117.059  77.976  1.00  0.00    -0.274 OA
ATOM      2  N   UNL     1     101.120 115.620  78.863  1.00  0.00    -0.343 N 
ATOM      3  C   UNL     1     100.601 116.900  78.659  1.00  0.00     0.230 C 
ENDROOT
BRANCH   3   4
ATOM      4  C   UNL     1     101.256 118.157  79.260  1.00  0.00     0.116 C 
ATOM      5  C   UNL     1     101.174 118.174  80.798  1.00  0.00     0.102 C 
ATOM      6  C   UNL     1     100.777 119.433  78.617  1.00  0.00    -0.007 C 
ATOM      7  N   UNL     1     101.626 119.433  81.426  1.00  0.00    -0.298 NA
ATOM      8  C   UNL     1     100.579 120.539  79.356  1.00  0.00    -0.026 C 
ATOM      9  C   UNL     1     100.906 120.610  80.874  1.00  0.00     0.091 C 
ATOM     10  C   UNL     1      99.891 121.725  78.805  1.00  0.00    -0.011 A 
ATOM     11  C   UNL     1      99.631 120.934  81.738  1.00  0.00     0.061 C 
ATOM     12  C   UNL     1      99.094 122.385  79.755  1.00  0.00     0.010 A 
ATOM     13  C   UNL     1      99.901 122.225  77.502  1.00  0.00     0.009 A 
ATOM     14  C   UNL     1      98.902 122.092  81.129  1.00  0.00    -0.020 A 
ATOM     15  C   UNL     1      98.340 123.497  79.425  1.00  0.00     0.046 A 
ATOM     16  C   UNL     1      99.138 123.356  77.176  1.00  0.00     0.003 A 
ATOM     17  C   UNL     1      98.023 123.029  81.620  1.00  0.00     0.087 A 
ATOM     18  N   UNL     1      97.691 123.874  80.582  1.00  0.00    -0.361 N 
ATOM     19  C   UNL     1      98.340 124.016  78.128  1.00  0.00     0.027 A 
ATOM     20  C   UNL     1     103.077 119.596  81.296  1.00  0.00     0.106 C 
ATOM     21  H   UNL     1      97.063 124.663  80.655  1.00  0.00     0.166 HD
ENDBRANCH   3   4
BRANCH   2  22
ATOM     22  C   UNL     1     100.353 114.505  78.294  1.00  0.00     0.116 C 
ATOM     23  C   UNL     1      99.265 114.013  79.238  1.00  0.00     0.027 C 
ENDBRANCH   2  22
BRANCH   2  24
ATOM     24  C   UNL     1     102.213 115.261  79.777  1.00  0.00     0.116 C 
ATOM     25  C   UNL     1     103.501 114.902  79.048  1.00  0.00     0.027 C 
ENDBRANCH   2  24
TORSDOF 3
ENDMDL
MODEL 8
REMARK VINA RESULT:    -7.543      3.801      6.496
REMARK INTER + INTRA:          -8.002
REMARK INTER:                  -7.723
REMARK INTRA:                  -0.279
REMARK UNBOUND:                 0.863
REMARK SMILES CCN(CC)C(=O)[C@@H]1C=C2c3cccc4[nH]cc(c34)C[C@H]2N(C)C1
REMARK SMILES IDX 7 1 3 2 6 3 8 4 24 5 9 6 22 7 10 8 21 9 11 10 20 11 19 12
REMARK SMILES IDX 12 13 18 14 15 15 13 16 17 17 16 18 14 19 23 20 2 22 1 23
REMARK SMILES IDX 4 24 5 25
REMARK H PARENT 16 21
ROOT
ATOM      1  O   UNL     1     102.337 117.438  86.158  1.00  0.00    -0.274 OA
ATOM      2  N   UNL     1     100.464 118.451  86.992  1.00  0.00    -0.343 N 
ATOM      3  C   UNL     1     101.148 117.748  85.998  1.00  0.00     0.230 C 
ENDROOT
BRANCH   3   4
ATOM      4  C   UNL     1     100.477 117.329  84.678  1.00  0.00     0.116 C 
ATOM      5  C   UNL     1     101.303 116.274  83.917  1.00  0.00     0.102 C 
ATOM      6  C   UNL     1     100.068 118.503  83.828  1.00  0.00    -0.007 C 
ATOM      7  N   UNL     1     100.804 115.959  82.563  1.00  0.00    -0.298 NA
ATOM      8  C   UNL     1     100.192 118.454  82.489  1.00  0.00    -0.026 C 
ATOM      9  C   UNL     1     100.667 117.183  81.731  1.00  0.00     0.091 C 
ATOM     10  C   UNL     1     100.026 119.661  81.652  1.00  0.00    -0.011 A 
ATOM     11  C   UNL     1     101.984 117.444  80.909  1.00  0.00     0.061 C 
ATOM     12  C   UNL     1     100.889 119.678  80.543  1.00  0.00     0.010 A 
ATOM     13  C   UNL     1      99.186 120.758  81.843  1.00  0.00     0.009 A 
ATOM     14  C   UNL     1     101.832 118.708  80.121  1.00  0.00    -0.020 A 
ATOM     15  C   UNL     1     100.912 120.742  79.658  1.00  0.00     0.046 A 
ATOM     16  C   UNL     1      99.212 121.830  80.938  1.00  0.00     0.003 A 
ATOM     17  C   UNL     1     102.429 119.197  78.982  1.00  0.00     0.087 A 
ATOM     18  N   UNL     1     101.863 120.427  78.710  1.00  0.00    -0.361 N 
ATOM     19  C   UNL     1     100.076 121.847  79.828  1.00  0.00     0.027 A 
ATOM     20  C   UNL     1      99.539 115.221  82.624  1.00  0.00     0.106 C 
ATOM     21  H   UNL     1     102.107 121.016  77.926  1.00  0.00     0.166 HD
ENDBRANCH   3   4
BRANCH   2  22
ATOM     22  C   UNL     1     101.204 118.721  88.231  1.00  0.00     0.116 C 
ATOM     23  C   UNL     1     100.289 118.787  89.446  1.00  0.00     0.027 C 
ENDBRANCH   2  22
BRANCH   2  24
ATOM     24  C   UNL     1      99.022 118.737  87.017  1.00  0.00     0.116 C 
ATOM     25  C   UNL     1      98.702 120.193  86.706  1.00  0.00     0.027 C 
ENDBRANCH   2  24
TORSDOF 3
ENDMDL
MODEL 9
REMARK VINA RESULT:    -7.519      2.996      6.054
REMARK INTER + INTRA:          -7.974
REMARK INTER:                  -7.526
REMARK INTRA:                  -0.449
REMARK UNBOUND:                 0.863
REMARK SMILES CCN(CC)C(=O)[C@@H]1C=C2c3cccc4[nH]cc(c34)C[C@H]2N(C)C1
REMARK SMILES IDX 7 1 3 2 6 3 8 4 24 5 9 6 22 7 10 8 21 9 11 10 20 11 19 12
REMARK SMILES IDX 12 13 18 14 15 15 13 16 17 17 16 18 14 19 23 20 2 22 1 23
REMARK SMILES IDX 4 24 5 25
REMARK H PARENT 16 21
ROOT
ATOM      1  O   UNL     1     104.796 118.773  78.249  1.00  0.00    -0.274 OA
ATOM      2  N   UNL     1     104.840 116.495  78.055  1.00  0.00    -0.343 N 
ATOM      3  C   UNL     1     104.165 117.707  78.205  1.00  0.00     0.230 C 
ENDROOT
BRANCH   3   4
ATOM      4  C   UNL     1     102.632 117.786  78.321  1.00  0.00     0.116 C 
ATOM      5  C   UNL     1     102.066 119.060  77.666  1.00  0.00     0.102 C 
ATOM      6  C   UNL     1     102.137 117.560  79.726  1.00  0.00    -0.007 C 
ATOM      7  N   UNL     1     100.624 119.283  77.895  1.00  0.00    -0.298 NA
ATOM      8  C   UNL     1     101.098 118.266  80.207  1.00  0.00    -0.026 C 
ATOM      9  C   UNL     1     100.291 119.276  79.344  1.00  0.00     0.091 C 
ATOM     10  C   UNL     1     100.742 118.239  81.641  1.00  0.00    -0.011 A 
ATOM     11  C   UNL     1     100.351 120.734  79.933  1.00  0.00     0.061 C 
ATOM     12  C   UNL     1     100.268 119.477  82.108  1.00  0.00     0.010 A 
ATOM     13  C   UNL     1     100.854 117.194  82.558  1.00  0.00     0.009 A 
ATOM     14  C   UNL     1     100.061 120.687  81.401  1.00  0.00    -0.020 A 
ATOM     15  C   UNL     1      99.917 119.666  83.434  1.00  0.00     0.046 A 
ATOM     16  C   UNL     1     100.492 117.393  83.899  1.00  0.00     0.003 A 
ATOM     17  C   UNL     1      99.591 121.608  82.309  1.00  0.00     0.087 A 
ATOM     18  N   UNL     1      99.507 120.979  83.534  1.00  0.00    -0.361 N 
ATOM     19  C   UNL     1     100.018 118.632  84.367  1.00  0.00     0.027 A 
ATOM     20  C   UNL     1      99.815 118.302  77.166  1.00  0.00     0.106 C 
ATOM     21  H   UNL     1      99.187 121.415  84.388  1.00  0.00     0.166 HD
ENDBRANCH   3   4
BRANCH   2  22
ATOM     22  C   UNL     1     106.295 116.572  77.881  1.00  0.00     0.116 C 
ATOM     23  C   UNL     1     107.047 116.243  79.163  1.00  0.00     0.027 C 
ENDBRANCH   2  22
BRANCH   2  24
ATOM     24  C   UNL     1     104.223 115.181  77.819  1.00  0.00     0.116 C 
ATOM     25  C   UNL     1     104.226 114.295  79.058  1.00  0.00     0.027 C 
ENDBRANCH   2  24
TORSDOF 3
ENDMDL
MODEL 10
REMARK VINA RESULT:    -7.218      2.076      6.256
REMARK INTER + INTRA:          -7.620
REMARK INTER:                  -8.329
REMARK INTRA:                   0.709
REMARK UNBOUND:                 0.863
REMARK SMILES CCN(CC)C(=O)[C@@H]1C=C2c3cccc4[nH]cc(c34)C[C@H]2N(C)C1
REMARK SMILES IDX 7 1 3 2 6 3 8 4 24 5 9 6 22 7 10 8 21 9 11 10 20 11 19 12
REMARK SMILES IDX 12 13 18 14 15 15 13 16 17 17 16 18 14 19 23 20 2 22 1 23
REMARK SMILES IDX 4 24 5 25
REMARK H PARENT 16 21
ROOT
ATOM      1  O   UNL     1     101.458 116.443  77.172  1.00  0.00    -0.274 OA
ATOM      2  N   UNL     1     100.470 115.861  79.151  1.00  0.00    -0.343 N 
ATOM      3  C   UNL     1     101.240 116.716  78.361  1.00  0.00     0.230 C 
ENDROOT
BRANCH   3   4
ATOM      4  C   UNL     1     101.849 118.018  78.912  1.00  0.00     0.116 C 
ATOM      5  C   UNL     1     102.145 117.926  80.421  1.00  0.00     0.102 C 
ATOM      6  C   UNL     1     101.062 119.244  78.526  1.00  0.00    -0.007 C 
ATOM      7  N   UNL     1     102.566 119.197  81.046  1.00  0.00    -0.298 NA
ATOM      8  C   UNL     1     100.907 120.258  79.395  1.00  0.00    -0.026 C 
ATOM      9  C   UNL     1     101.583 120.283  80.794  1.00  0.00     0.091 C 
ATOM     10  C   UNL     1      99.954 121.358  79.138  1.00  0.00    -0.011 A 
ATOM     11  C   UNL     1     100.527 120.355  81.959  1.00  0.00     0.061 C 
ATOM     12  C   UNL     1      99.333 121.828  80.308  1.00  0.00     0.010 A 
ATOM     13  C   UNL     1      99.578 121.934  77.924  1.00  0.00     0.009 A 
ATOM     14  C   UNL     1      99.524 121.423  81.653  1.00  0.00    -0.020 A 
ATOM     15  C   UNL     1      98.380 122.831  80.272  1.00  0.00     0.046 A 
ATOM     16  C   UNL     1      98.615 122.954  77.897  1.00  0.00     0.003 A 
ATOM     17  C   UNL     1      98.676 122.183  82.425  1.00  0.00     0.087 A 
ATOM     18  N   UNL     1      97.991 123.032  81.580  1.00  0.00    -0.361 N 
ATOM     19  C   UNL     1      97.994 123.423  79.068  1.00  0.00     0.027 A 
ATOM     20  C   UNL     1     103.906 119.587  80.598  1.00  0.00     0.106 C 
ATOM     21  H   UNL     1      97.301 123.710  81.874  1.00  0.00     0.166 HD
ENDBRANCH   3   4
BRANCH   2  22
ATOM     22  C   UNL     1      99.890 114.692  78.478  1.00  0.00     0.116 C 
ATOM     23  C   UNL     1      98.527 114.319  79.043  1.00  0.00     0.027 C 
ENDBRANCH   2  22
BRANCH   2  24
ATOM     24  C   UNL     1      99.992 116.132  80.514  1.00  0.00     0.116 C 
ATOM     25  C   UNL     1     100.790 115.393  81.580  1.00  0.00     0.027 C 
ENDBRANCH   2  24
TORSDOF 3
ENDMDL
MODEL 11
REMARK VINA RESULT:    -6.914      5.729      8.835
REMARK INTER + INTRA:          -7.263
REMARK INTER:                  -6.711
REMARK INTRA:                  -0.552
REMARK UNBOUND:                 0.863
REMARK SMILES CCN(CC)C(=O)[C@@H]1C=C2c3cccc4[nH]cc(c34)C[C@H]2N(C)C1
REMARK SMILES IDX 7 1 3 2 6 3 8 4 24 5 9 6 22 7 10 8 21 9 11 10 20 11 19 12
REMARK SMILES IDX 12 13 18 14 15 15 13 16 17 17 16 18 14 19 23 20 2 22 1 23
REMARK SMILES IDX 4 24 5 25
REMARK H PARENT 16 21
ROOT
ATOM      1  O   UNL     1      99.737 115.818  84.300  1.00  0.00    -0.274 OA
ATOM      2  N   UNL     1     100.626 117.126  82.649  1.00  0.00    -0.343 N 
ATOM      3  C   UNL     1     100.388 116.826  83.991  1.00  0.00     0.230 C 
ENDROOT
BRANCH   3   4
ATOM      4  C   UNL     1     100.910 117.712  85.136  1.00  0.00     0.116 C 
ATOM      5  C   UNL     1     101.498 116.879  86.291  1.00  0.00     0.102 C 
ATOM      6  C   UNL     1      99.907 118.742  85.586  1.00  0.00    -0.007 C 
ATOM      7  N   UNL     1     101.855 117.658  87.494  1.00  0.00    -0.298 NA
ATOM      8  C   UNL     1      99.784 119.054  86.889  1.00  0.00    -0.026 C 
ATOM      9  C   UNL     1     100.705 118.459  87.990  1.00  0.00     0.091 C 
ATOM     10  C   UNL     1      98.661 119.876  87.385  1.00  0.00    -0.011 A 
ATOM     11  C   UNL     1      99.891 117.650  89.067  1.00  0.00     0.061 C 
ATOM     12  C   UNL     1      98.217 119.482  88.659  1.00  0.00     0.010 A 
ATOM     13  C   UNL     1      97.987 120.922  86.754  1.00  0.00     0.009 A 
ATOM     14  C   UNL     1      98.714 118.463  89.509  1.00  0.00    -0.020 A 
ATOM     15  C   UNL     1      97.149 120.104  89.281  1.00  0.00     0.046 A 
ATOM     16  C   UNL     1      96.908 121.551  87.394  1.00  0.00     0.003 A 
ATOM     17  C   UNL     1      97.934 118.470  90.643  1.00  0.00     0.087 A 
ATOM     18  N   UNL     1      96.993 119.468  90.494  1.00  0.00    -0.361 N 
ATOM     19  C   UNL     1      96.464 121.156  88.669  1.00  0.00     0.027 A 
ATOM     20  C   UNL     1     103.021 118.512  87.244  1.00  0.00     0.106 C 
ATOM     21  H   UNL     1      96.287 119.705  91.178  1.00  0.00     0.166 HD
ENDBRANCH   3   4
BRANCH   2  22
ATOM     22  C   UNL     1     100.134 116.156  81.663  1.00  0.00     0.116 C 
ATOM     23  C   UNL     1     101.181 115.824  80.609  1.00  0.00     0.027 C 
ENDBRANCH   2  22
BRANCH   2  24
ATOM     24  C   UNL     1     101.514 118.181  82.138  1.00  0.00     0.116 C 
ATOM     25  C   UNL     1     100.759 119.426  81.692  1.00  0.00     0.027 C 
ENDBRANCH   2  24
TORSDOF 3
ENDMDL
