MODEL 1
REMARK VINA RESULT:    -7.884      0.000      0.000
REMARK INTER + INTRA:         -10.901
REMARK INTER:                 -10.189
REMARK INTRA:                  -0.712
REMARK UNBOUND:                -0.712
REMARK SMILES CCCN1C[C@H](C(=O)N(CC)CC)C=C2c3cccc4[nH]cc(c34)C[C@H]21
REMARK SMILES IDX 4 1 21 2 26 3 15 4 25 5 5 6 6 7 23 8 16 9 14 10 24 11 20 12
REMARK SMILES IDX 22 13 17 14 19 15 18 16 7 18 8 19 9 20 10 21 11 22 12 23
REMARK SMILES IDX 13 24 3 25 2 26 1 27
REMARK H PARENT 21 17
ROOT
ATOM      1  N   UNL     1      97.895 126.619 117.773  1.00  0.00    -0.295 NA
ATOM      2  N   UNL     1      97.269 120.647 117.074  1.00  0.00    -0.361 N 
ATOM      3  C   UNL     1      97.410 125.202 117.892  1.00  0.00     0.091 C 
ATOM      4  C   UNL     1      97.365 124.660 119.361  1.00  0.00    -0.026 C 
ATOM      5  C   UNL     1      98.066 124.241 116.832  1.00  0.00     0.061 C 
ATOM      6  C   UNL     1      97.201 127.448 118.784  1.00  0.00     0.102 C 
ATOM      7  C   UNL     1      97.450 126.996 120.235  1.00  0.00     0.116 C 
ATOM      8  C   UNL     1      97.673 122.829 117.080  1.00  0.00    -0.020 A 
ATOM      9  C   UNL     1      97.166 123.200 119.548  1.00  0.00    -0.011 A 
ATOM     10  C   UNL     1      97.421 125.500 120.416  1.00  0.00    -0.007 C 
ATOM     11  C   UNL     1      97.297 122.433 118.382  1.00  0.00     0.010 A 
ATOM     12  C   UNL     1      97.068 121.065 118.372  1.00  0.00     0.046 A 
ATOM     13  C   UNL     1      97.642 121.710 116.281  1.00  0.00     0.087 A 
ATOM     14  C   UNL     1      96.813 122.513 120.719  1.00  0.00     0.009 A 
ATOM     15  C   UNL     1      96.711 120.373 119.530  1.00  0.00     0.027 A 
ATOM     16  C   UNL     1      96.595 121.128 120.706  1.00  0.00     0.003 A 
ATOM     17  H   UNL     1      97.174 119.692 116.758  1.00  0.00     0.166 HD
ENDROOT
BRANCH   7  18
ATOM     18  C   UNL     1      96.543 127.777 121.204  1.00  0.00     0.230 C 
ATOM     19  O   UNL     1      95.501 127.224 121.585  1.00  0.00    -0.274 OA
ATOM     20  N   UNL     1      96.886 129.039 121.684  1.00  0.00    -0.343 N 
BRANCH  20  21
ATOM     21  C   UNL     1      96.006 129.633 122.696  1.00  0.00     0.116 C 
ATOM     22  C   UNL     1      96.692 129.725 124.051  1.00  0.00     0.027 C 
ENDBRANCH  20  21
BRANCH  20  23
ATOM     23  C   UNL     1      98.055 129.836 121.296  1.00  0.00     0.116 C 
ATOM     24  C   UNL     1      97.665 131.195 120.732  1.00  0.00     0.027 C 
ENDBRANCH  20  23
ENDBRANCH   7  18
BRANCH   1  25
ATOM     25  C   UNL     1      99.365 126.742 117.838  1.00  0.00     0.085 C 
BRANCH  25  26
ATOM     26  C   UNL     1      99.974 127.919 117.056  1.00  0.00     0.012 C 
ATOM     27  C   UNL     1     101.495 127.874 116.991  1.00  0.00     0.005 C 
ENDBRANCH  25  26
ENDBRANCH   1  25
TORSDOF 5
ENDMDL
MODEL 2
REMARK VINA RESULT:    -7.658      3.907      7.430
REMARK INTER + INTRA:         -10.608
REMARK INTER:                  -9.881
REMARK INTRA:                  -0.727
REMARK UNBOUND:                -0.712
REMARK SMILES CCCN1C[C@H](C(=O)N(CC)CC)C=C2c3cccc4[nH]cc(c34)C[C@H]21
REMARK SMILES IDX 4 1 21 2 26 3 15 4 25 5 5 6 6 7 23 8 16 9 14 10 24 11 20 12
REMARK SMILES IDX 22 13 17 14 19 15 18 16 7 18 8 19 9 20 10 21 11 22 12 23
REMARK SMILES IDX 13 24 3 25 2 26 1 27
REMARK H PARENT 21 17
ROOT
ATOM      1  N   UNL     1      99.954 122.001 114.611  1.00  0.00    -0.295 NA
ATOM      2  N   UNL     1     102.138 127.618 115.083  1.00  0.00    -0.361 N 
ATOM      3  C   UNL     1     100.438 123.312 115.162  1.00  0.00     0.091 C 
ATOM      4  C   UNL     1      99.412 124.030 116.105  1.00  0.00    -0.026 C 
ATOM      5  C   UNL     1     101.110 124.223 114.069  1.00  0.00     0.061 C 
ATOM      6  C   UNL     1      99.371 121.206 115.715  1.00  0.00     0.102 C 
ATOM      7  C   UNL     1      98.173 121.886 116.404  1.00  0.00     0.116 C 
ATOM      8  C   UNL     1     101.438 125.564 114.622  1.00  0.00    -0.020 A 
ATOM      9  C   UNL     1      99.688 125.443 116.469  1.00  0.00    -0.011 A 
ATOM     10  C   UNL     1      98.364 123.363 116.631  1.00  0.00    -0.007 C 
ATOM     11  C   UNL     1     100.703 126.058 115.721  1.00  0.00     0.010 A 
ATOM     12  C   UNL     1     101.132 127.349 115.987  1.00  0.00     0.046 A 
ATOM     13  C   UNL     1     102.328 126.542 114.245  1.00  0.00     0.087 A 
ATOM     14  C   UNL     1      99.106 126.209 117.490  1.00  0.00     0.009 A 
ATOM     15  C   UNL     1     100.563 128.117 117.005  1.00  0.00     0.027 A 
ATOM     16  C   UNL     1      99.535 127.519 117.747  1.00  0.00     0.003 A 
ATOM     17  H   UNL     1     102.646 128.490 115.033  1.00  0.00     0.166 HD
ENDROOT
BRANCH   7  18
ATOM     18  C   UNL     1      97.754 121.093 117.657  1.00  0.00     0.230 C 
ATOM     19  O   UNL     1      98.619 120.403 118.214  1.00  0.00    -0.274 OA
ATOM     20  N   UNL     1      96.468 121.174 118.188  1.00  0.00    -0.343 N 
BRANCH  20  21
ATOM     21  C   UNL     1      96.220 120.473 119.452  1.00  0.00     0.116 C 
ATOM     22  C   UNL     1      95.537 119.133 119.225  1.00  0.00     0.027 C 
ENDBRANCH  20  21
BRANCH  20  23
ATOM     23  C   UNL     1      95.331 121.908 117.623  1.00  0.00     0.116 C 
ATOM     24  C   UNL     1      94.417 122.476 118.699  1.00  0.00     0.027 C 
ENDBRANCH  20  23
ENDBRANCH   7  18
BRANCH   1  25
ATOM     25  C   UNL     1      99.040 122.150 113.463  1.00  0.00     0.085 C 
BRANCH  25  26
ATOM     26  C   UNL     1      99.018 120.978 112.466  1.00  0.00     0.012 C 
ATOM     27  C   UNL     1     100.406 120.452 112.125  1.00  0.00     0.005 C 
ENDBRANCH  25  26
ENDBRANCH   1  25
TORSDOF 5
ENDMDL
MODEL 3
REMARK VINA RESULT:    -7.331      3.030      6.198
REMARK INTER + INTRA:         -10.185
REMARK INTER:                  -9.973
REMARK INTRA:                  -0.212
REMARK UNBOUND:                -0.712
REMARK SMILES CCCN1C[C@H](C(=O)N(CC)CC)C=C2c3cccc4[nH]cc(c34)C[C@H]21
REMARK SMILES IDX 4 1 21 2 26 3 15 4 25 5 5 6 6 7 23 8 16 9 14 10 24 11 20 12
REMARK SMILES IDX 22 13 17 14 19 15 18 16 7 18 8 19 9 20 10 21 11 22 12 23
REMARK SMILES IDX 13 24 3 25 2 26 1 27
REMARK H PARENT 21 17
ROOT
ATOM      1  N   UNL     1      97.516 120.719 116.988  1.00  0.00    -0.295 NA
ATOM      2  N   UNL     1     101.058 121.385 112.135  1.00  0.00    -0.361 N 
ATOM      3  C   UNL     1      98.593 121.183 116.049  1.00  0.00     0.091 C 
ATOM      4  C   UNL     1      98.625 122.733 115.824  1.00  0.00    -0.026 C 
ATOM      5  C   UNL     1      98.687 120.304 114.746  1.00  0.00     0.061 C 
ATOM      6  C   UNL     1      97.528 121.581 118.190  1.00  0.00     0.102 C 
ATOM      7  C   UNL     1      97.268 123.069 117.890  1.00  0.00     0.116 C 
ATOM      8  C   UNL     1      99.659 120.884 113.782  1.00  0.00    -0.020 A 
ATOM      9  C   UNL     1      99.465 123.248 114.713  1.00  0.00    -0.011 A 
ATOM     10  C   UNL     1      97.980 123.572 116.661  1.00  0.00    -0.007 C 
ATOM     11  C   UNL     1      99.935 122.268 113.825  1.00  0.00     0.010 A 
ATOM     12  C   UNL     1     100.792 122.574 112.779  1.00  0.00     0.046 A 
ATOM     13  C   UNL     1     100.370 120.352 112.732  1.00  0.00     0.087 A 
ATOM     14  C   UNL     1      99.885 124.565 114.477  1.00  0.00     0.009 A 
ATOM     15  C   UNL     1     101.220 123.881 112.540  1.00  0.00     0.027 A 
ATOM     16  C   UNL     1     100.742 124.871 113.410  1.00  0.00     0.003 A 
ATOM     17  H   UNL     1     101.657 121.293 111.326  1.00  0.00     0.166 HD
ENDROOT
BRANCH   7  18
ATOM     18  C   UNL     1      97.492 123.920 119.154  1.00  0.00     0.230 C 
ATOM     19  O   UNL     1      97.527 123.330 120.243  1.00  0.00    -0.274 OA
ATOM     20  N   UNL     1      97.699 125.297 119.093  1.00  0.00    -0.343 N 
BRANCH  20  21
ATOM     21  C   UNL     1      98.024 125.981 120.349  1.00  0.00     0.116 C 
ATOM     22  C   UNL     1      96.886 126.881 120.807  1.00  0.00     0.027 C 
ENDBRANCH  20  21
BRANCH  20  23
ATOM     23  C   UNL     1      97.644 126.139 117.893  1.00  0.00     0.116 C 
ATOM     24  C   UNL     1      98.892 126.995 117.732  1.00  0.00     0.027 C 
ENDBRANCH  20  23
ENDBRANCH   7  18
BRANCH   1  25
ATOM     25  C   UNL     1      96.186 120.630 116.356  1.00  0.00     0.085 C 
BRANCH  25  26
ATOM     26  C   UNL     1      95.600 119.214 116.220  1.00  0.00     0.012 C 
ATOM     27  C   UNL     1      95.312 118.818 114.778  1.00  0.00     0.005 C 
ENDBRANCH  25  26
ENDBRANCH   1  25
TORSDOF 5
ENDMDL
MODEL 4
REMARK VINA RESULT:    -7.189      3.074      6.500
REMARK INTER + INTRA:         -10.002
REMARK INTER:                  -9.210
REMARK INTRA:                  -0.792
REMARK UNBOUND:                -0.712
REMARK SMILES CCCN1C[C@H](C(=O)N(CC)CC)C=C2c3cccc4[nH]cc(c34)C[C@H]21
REMARK SMILES IDX 4 1 21 2 26 3 15 4 25 5 5 6 6 7 23 8 16 9 14 10 24 11 20 12
REMARK SMILES IDX 22 13 17 14 19 15 18 16 7 18 8 19 9 20 10 21 11 22 12 23
REMARK SMILES IDX 13 24 3 25 2 26 1 27
REMARK H PARENT 21 17
ROOT
ATOM      1  N   UNL     1      97.704 124.606 116.816  1.00  0.00    -0.295 NA
ATOM      2  N   UNL     1     100.901 122.632 112.081  1.00  0.00    -0.361 N 
ATOM      3  C   UNL     1      98.175 123.808 115.633  1.00  0.00     0.091 C 
ATOM      4  C   UNL     1      98.358 122.279 115.922  1.00  0.00    -0.026 C 
ATOM      5  C   UNL     1      99.359 124.502 114.862  1.00  0.00     0.061 C 
ATOM      6  C   UNL     1      96.574 123.893 117.452  1.00  0.00     0.102 C 
ATOM      7  C   UNL     1      96.936 122.485 117.961  1.00  0.00     0.116 C 
ATOM      8  C   UNL     1      99.891 123.614 113.794  1.00  0.00    -0.020 A 
ATOM      9  C   UNL     1      99.077 121.470 114.904  1.00  0.00    -0.011 A 
ATOM     10  C   UNL     1      97.811 121.706 117.014  1.00  0.00    -0.007 C 
ATOM     11  C   UNL     1      99.737 122.216 113.916  1.00  0.00     0.010 A 
ATOM     12  C   UNL     1     100.390 121.611 112.853  1.00  0.00     0.046 A 
ATOM     13  C   UNL     1     100.609 123.854 112.646  1.00  0.00     0.087 A 
ATOM     14  C   UNL     1      99.129 120.074 114.781  1.00  0.00     0.009 A 
ATOM     15  C   UNL     1     100.442 120.223 112.718  1.00  0.00     0.027 A 
ATOM     16  C   UNL     1      99.802 119.468 113.710  1.00  0.00     0.003 A 
ATOM     17  H   UNL     1     101.433 122.498 111.232  1.00  0.00     0.166 HD
ENDROOT
BRANCH   7  18
ATOM     18  C   UNL     1      95.671 121.740 118.426  1.00  0.00     0.230 C 
ATOM     19  O   UNL     1      94.599 122.032 117.876  1.00  0.00    -0.274 OA
ATOM     20  N   UNL     1      95.715 120.737 119.392  1.00  0.00    -0.343 N 
BRANCH  20  21
ATOM     21  C   UNL     1      94.468 120.014 119.664  1.00  0.00     0.116 C 
ATOM     22  C   UNL     1      94.581 118.543 119.292  1.00  0.00     0.027 C 
ENDBRANCH  20  21
BRANCH  20  23
ATOM     23  C   UNL     1      96.890 120.311 120.160  1.00  0.00     0.116 C 
ATOM     24  C   UNL     1      97.008 121.043 121.489  1.00  0.00     0.027 C 
ENDBRANCH  20  23
ENDBRANCH   7  18
BRANCH   1  25
ATOM     25  C   UNL     1      98.783 124.940 117.765  1.00  0.00     0.085 C 
BRANCH  25  26
ATOM     26  C   UNL     1      98.738 126.357 118.362  1.00  0.00     0.012 C 
ATOM     27  C   UNL     1      98.373 126.375 119.841  1.00  0.00     0.005 C 
ENDBRANCH  25  26
ENDBRANCH   1  25
TORSDOF 5
ENDMDL
MODEL 5
REMARK VINA RESULT:    -7.161      2.431      5.249
REMARK INTER + INTRA:          -9.966
REMARK INTER:                  -9.727
REMARK INTRA:                  -0.239
REMARK UNBOUND:                -0.712
REMARK SMILES CCCN1C[C@H](C(=O)N(CC)CC)C=C2c3cccc4[nH]cc(c34)C[C@H]21
REMARK SMILES IDX 4 1 21 2 26 3 15 4 25 5 5 6 6 7 23 8 16 9 14 10 24 11 20 12
REMARK SMILES IDX 22 13 17 14 19 15 18 16 7 18 8 19 9 20 10 21 11 22 12 23
REMARK SMILES IDX 13 24 3 25 2 26 1 27
REMARK H PARENT 21 17
ROOT
ATOM      1  N   UNL     1      96.895 121.845 118.199  1.00  0.00    -0.295 NA
ATOM      2  N   UNL     1     100.099 120.509 113.251  1.00  0.00    -0.361 N 
ATOM      3  C   UNL     1      97.961 121.822 117.142  1.00  0.00     0.091 C 
ATOM      4  C   UNL     1      98.270 123.223 116.512  1.00  0.00    -0.026 C 
ATOM      5  C   UNL     1      97.781 120.640 116.119  1.00  0.00     0.061 C 
ATOM      6  C   UNL     1      97.166 122.964 119.128  1.00  0.00     0.102 C 
ATOM      7  C   UNL     1      97.172 124.347 118.450  1.00  0.00     0.116 C 
ATOM      8  C   UNL     1      98.766 120.743 115.009  1.00  0.00    -0.020 A 
ATOM      9  C   UNL     1      99.102 123.254 115.282  1.00  0.00    -0.011 A 
ATOM     10  C   UNL     1      97.866 124.362 117.113  1.00  0.00    -0.007 C 
ATOM     11  C   UNL     1      99.303 122.005 114.675  1.00  0.00     0.010 A 
ATOM     12  C   UNL     1     100.117 121.852 113.563  1.00  0.00     0.046 A 
ATOM     13  C   UNL     1      99.277 119.826 114.120  1.00  0.00     0.087 A 
ATOM     14  C   UNL     1      99.745 124.353 114.693  1.00  0.00     0.009 A 
ATOM     15  C   UNL     1     100.766 122.938 112.973  1.00  0.00     0.027 A 
ATOM     16  C   UNL     1     100.556 124.194 113.560  1.00  0.00     0.003 A 
ATOM     17  H   UNL     1     100.603 120.093 112.480  1.00  0.00     0.166 HD
ENDROOT
BRANCH   7  18
ATOM     18  C   UNL     1      97.654 125.427 119.436  1.00  0.00     0.230 C 
ATOM     19  O   UNL     1      98.186 125.046 120.488  1.00  0.00    -0.274 OA
ATOM     20  N   UNL     1      97.550 126.787 119.153  1.00  0.00    -0.343 N 
BRANCH  20  21
ATOM     21  C   UNL     1      98.155 127.719 120.110  1.00  0.00     0.116 C 
ATOM     22  C   UNL     1      97.253 127.950 121.314  1.00  0.00     0.027 C 
ENDBRANCH  20  21
BRANCH  20  23
ATOM     23  C   UNL     1      96.911 127.392 117.979  1.00  0.00     0.116 C 
ATOM     24  C   UNL     1      96.995 128.911 117.994  1.00  0.00     0.027 C 
ENDBRANCH  20  23
ENDBRANCH   7  18
BRANCH   1  25
ATOM     25  C   UNL     1      95.525 121.872 117.650  1.00  0.00     0.085 C 
BRANCH  25  26
ATOM     26  C   UNL     1      94.396 122.100 118.670  1.00  0.00     0.012 C 
ATOM     27  C   UNL     1      94.250 120.959 119.668  1.00  0.00     0.005 C 
ENDBRANCH  25  26
ENDBRANCH   1  25
TORSDOF 5
ENDMDL
MODEL 6
REMARK VINA RESULT:    -6.938      2.374      4.624
REMARK INTER + INTRA:          -9.677
REMARK INTER:                  -9.251
REMARK INTRA:                  -0.427
REMARK UNBOUND:                -0.712
REMARK SMILES CCCN1C[C@H](C(=O)N(CC)CC)C=C2c3cccc4[nH]cc(c34)C[C@H]21
REMARK SMILES IDX 4 1 21 2 26 3 15 4 25 5 5 6 6 7 23 8 16 9 14 10 24 11 20 12
REMARK SMILES IDX 22 13 17 14 19 15 18 16 7 18 8 19 9 20 10 21 11 22 12 23
REMARK SMILES IDX 13 24 3 25 2 26 1 27
REMARK H PARENT 21 17
ROOT
ATOM      1  N   UNL     1      97.273 121.798 117.022  1.00  0.00    -0.295 NA
ATOM      2  N   UNL     1      93.447 118.547 120.387  1.00  0.00    -0.361 N 
ATOM      3  C   UNL     1      96.125 121.388 117.898  1.00  0.00     0.091 C 
ATOM      4  C   UNL     1      95.998 122.218 119.222  1.00  0.00    -0.026 C 
ATOM      5  C   UNL     1      96.008 119.827 118.060  1.00  0.00     0.061 C 
ATOM      6  C   UNL     1      97.280 123.274 116.904  1.00  0.00     0.102 C 
ATOM      7  C   UNL     1      97.445 124.003 118.250  1.00  0.00     0.116 C 
ATOM      8  C   UNL     1      94.956 119.472 119.050  1.00  0.00    -0.020 A 
ATOM      9  C   UNL     1      95.074 121.707 120.266  1.00  0.00    -0.011 A 
ATOM     10  C   UNL     1      96.642 123.394 119.370  1.00  0.00    -0.007 C 
ATOM     11  C   UNL     1      94.611 120.400 120.056  1.00  0.00     0.010 A 
ATOM     12  C   UNL     1      93.684 119.805 120.898  1.00  0.00     0.046 A 
ATOM     13  C   UNL     1      94.219 118.331 119.267  1.00  0.00     0.087 A 
ATOM     14  C   UNL     1      94.573 122.381 121.390  1.00  0.00     0.009 A 
ATOM     15  C   UNL     1      93.175 120.469 122.015  1.00  0.00     0.027 A 
ATOM     16  C   UNL     1      93.646 121.769 122.246  1.00  0.00     0.003 A 
ATOM     17  H   UNL     1      92.811 117.874 120.792  1.00  0.00     0.166 HD
ENDROOT
BRANCH   7  18
ATOM     18  C   UNL     1      97.243 125.520 118.067  1.00  0.00     0.230 C 
ATOM     19  O   UNL     1      96.777 125.910 116.987  1.00  0.00    -0.274 OA
ATOM     20  N   UNL     1      97.523 126.431 119.083  1.00  0.00    -0.343 N 
BRANCH  20  21
ATOM     21  C   UNL     1      97.176 127.835 118.838  1.00  0.00     0.116 C 
ATOM     22  C   UNL     1      98.293 128.569 118.111  1.00  0.00     0.027 C 
ENDBRANCH  20  21
BRANCH  20  23
ATOM     23  C   UNL     1      98.116 126.131 120.391  1.00  0.00     0.116 C 
ATOM     24  C   UNL     1      97.851 127.230 121.410  1.00  0.00     0.027 C 
ENDBRANCH  20  23
ENDBRANCH   7  18
BRANCH   1  25
ATOM     25  C   UNL     1      98.571 121.250 117.460  1.00  0.00     0.085 C 
BRANCH  25  26
ATOM     26  C   UNL     1      99.632 121.075 116.360  1.00  0.00     0.012 C 
ATOM     27  C   UNL     1      99.034 120.832 114.981  1.00  0.00     0.005 C 
ENDBRANCH  25  26
ENDBRANCH   1  25
TORSDOF 5
ENDMDL
MODEL 7
REMARK VINA RESULT:    -6.443      3.343      8.460
REMARK INTER + INTRA:          -9.038
REMARK INTER:                  -9.023
REMARK INTRA:                  -0.014
REMARK UNBOUND:                -0.712
REMARK SMILES CCCN1C[C@H](C(=O)N(CC)CC)C=C2c3cccc4[nH]cc(c34)C[C@H]21
REMARK SMILES IDX 4 1 21 2 26 3 15 4 25 5 5 6 6 7 23 8 16 9 14 10 24 11 20 12
REMARK SMILES IDX 22 13 17 14 19 15 18 16 7 18 8 19 9 20 10 21 11 22 12 23
REMARK SMILES IDX 13 24 3 25 2 26 1 27
REMARK H PARENT 21 17
ROOT
ATOM      1  N   UNL     1      97.271 122.368 117.274  1.00  0.00    -0.295 NA
ATOM      2  N   UNL     1      98.917 128.162 117.782  1.00  0.00    -0.361 N 
ATOM      3  C   UNL     1      97.773 123.750 116.968  1.00  0.00     0.091 C 
ATOM      4  C   UNL     1      99.201 123.787 116.324  1.00  0.00    -0.026 C 
ATOM      5  C   UNL     1      97.532 124.762 118.150  1.00  0.00     0.061 C 
ATOM      6  C   UNL     1      97.510 121.502 116.099  1.00  0.00     0.102 C 
ATOM      7  C   UNL     1      98.996 121.377 115.711  1.00  0.00     0.116 C 
ATOM      8  C   UNL     1      98.174 126.073 117.865  1.00  0.00    -0.020 A 
ATOM      9  C   UNL     1      99.883 125.103 116.244  1.00  0.00    -0.011 A 
ATOM     10  C   UNL     1      99.752 122.678 115.788  1.00  0.00    -0.007 C 
ATOM     11  C   UNL     1      99.279 126.127 116.989  1.00  0.00     0.010 A 
ATOM     12  C   UNL     1      99.749 127.431 116.960  1.00  0.00     0.046 A 
ATOM     13  C   UNL     1      97.960 127.345 118.342  1.00  0.00     0.087 A 
ATOM     14  C   UNL     1     101.009 125.455 115.485  1.00  0.00     0.009 A 
ATOM     15  C   UNL     1     100.864 127.793 116.203  1.00  0.00     0.027 A 
ATOM     16  C   UNL     1     101.488 126.773 115.470  1.00  0.00     0.003 A 
ATOM     17  H   UNL     1      99.013 129.151 117.961  1.00  0.00     0.166 HD
ENDROOT
BRANCH   7  18
ATOM     18  C   UNL     1      99.141 120.629 114.372  1.00  0.00     0.230 C 
ATOM     19  O   UNL     1      99.228 119.393 114.413  1.00  0.00    -0.274 OA
ATOM     20  N   UNL     1      99.128 121.294 113.148  1.00  0.00    -0.343 N 
BRANCH  20  21
ATOM     21  C   UNL     1      99.150 120.467 111.937  1.00  0.00     0.116 C 
ATOM     22  C   UNL     1     100.571 120.207 111.460  1.00  0.00     0.027 C 
ENDBRANCH  20  21
BRANCH  20  23
ATOM     23  C   UNL     1      99.077 122.744 112.939  1.00  0.00     0.116 C 
ATOM     24  C   UNL     1     100.436 123.325 112.576  1.00  0.00     0.027 C 
ENDBRANCH  20  23
ENDBRANCH   7  18
BRANCH   1  25
ATOM     25  C   UNL     1      97.822 121.807 118.524  1.00  0.00     0.085 C 
BRANCH  25  26
ATOM     26  C   UNL     1      96.882 120.883 119.317  1.00  0.00     0.012 C 
ATOM     27  C   UNL     1      96.961 121.093 120.823  1.00  0.00     0.005 C 
ENDBRANCH  25  26
ENDBRANCH   1  25
TORSDOF 5
ENDMDL
MODEL 8
REMARK VINA RESULT:    -6.146      3.581      6.986
REMARK INTER + INTRA:          -8.654
REMARK INTER:                  -7.957
REMARK INTRA:                  -0.698
REMARK UNBOUND:                -0.712
REMARK SMILES CCCN1C[C@H](C(=O)N(CC)CC)C=C2c3cccc4[nH]cc(c34)C[C@H]21
REMARK SMILES IDX 4 1 21 2 26 3 15 4 25 5 5 6 6 7 23 8 16 9 14 10 24 11 20 12
REMARK SMILES IDX 22 13 17 14 19 15 18 16 7 18 8 19 9 20 10 21 11 22 12 23
REMARK SMILES IDX 13 24 3 25 2 26 1 27
REMARK H PARENT 21 17
ROOT
ATOM      1  N   UNL     1      96.552 120.005 117.414  1.00  0.00    -0.295 NA
ATOM      2  N   UNL     1     100.104 124.448 115.371  1.00  0.00    -0.361 N 
ATOM      3  C   UNL     1      97.437 121.215 117.339  1.00  0.00     0.091 C 
ATOM      4  C   UNL     1      96.814 122.507 117.970  1.00  0.00    -0.026 C 
ATOM      5  C   UNL     1      98.100 121.400 115.924  1.00  0.00     0.061 C 
ATOM      6  C   UNL     1      96.004 119.898 118.785  1.00  0.00     0.102 C 
ATOM      7  C   UNL     1      95.161 121.113 119.213  1.00  0.00     0.116 C 
ATOM      8  C   UNL     1      98.845 122.685 115.849  1.00  0.00    -0.020 A 
ATOM      9  C   UNL     1      97.493 123.800 117.698  1.00  0.00    -0.011 A 
ATOM     10  C   UNL     1      95.749 122.435 118.796  1.00  0.00    -0.007 C 
ATOM     11  C   UNL     1      98.471 123.752 116.694  1.00  0.00     0.010 A 
ATOM     12  C   UNL     1      99.248 124.855 116.372  1.00  0.00     0.046 A 
ATOM     13  C   UNL     1      99.864 123.133 115.041  1.00  0.00     0.087 A 
ATOM     14  C   UNL     1      97.317 125.030 118.349  1.00  0.00     0.009 A 
ATOM     15  C   UNL     1      99.085 126.081 117.019  1.00  0.00     0.027 A 
ATOM     16  C   UNL     1      98.096 126.145 118.011  1.00  0.00     0.003 A 
ATOM     17  H   UNL     1     100.793 125.041 114.930  1.00  0.00     0.166 HD
ENDROOT
BRANCH   7  18
ATOM     18  C   UNL     1      94.798 121.015 120.707  1.00  0.00     0.230 C 
ATOM     19  O   UNL     1      95.720 121.118 121.529  1.00  0.00    -0.274 OA
ATOM     20  N   UNL     1      93.482 120.866 121.141  1.00  0.00    -0.343 N 
BRANCH  20  21
ATOM     21  C   UNL     1      93.245 120.909 122.588  1.00  0.00     0.116 C 
ATOM     22  C   UNL     1      92.940 122.321 123.064  1.00  0.00     0.027 C 
ENDBRANCH  20  21
BRANCH  20  23
ATOM     23  C   UNL     1      92.296 120.688 120.297  1.00  0.00     0.116 C 
ATOM     24  C   UNL     1      92.050 119.227 119.948  1.00  0.00     0.027 C 
ENDBRANCH  20  23
ENDBRANCH   7  18
BRANCH   1  25
ATOM     25  C   UNL     1      95.506 119.978 116.373  1.00  0.00     0.085 C 
BRANCH  25  26
ATOM     26  C   UNL     1      95.660 118.892 115.295  1.00  0.00     0.012 C 
ATOM     27  C   UNL     1      94.479 118.825 114.336  1.00  0.00     0.005 C 
ENDBRANCH  25  26
ENDBRANCH   1  25
TORSDOF 5
ENDMDL
MODEL 9
REMARK VINA RESULT:    -6.049      3.753      7.379
REMARK INTER + INTRA:          -8.529
REMARK INTER:                  -8.160
REMARK INTRA:                  -0.368
REMARK UNBOUND:                -0.712
REMARK SMILES CCCN1C[C@H](C(=O)N(CC)CC)C=C2c3cccc4[nH]cc(c34)C[C@H]21
REMARK SMILES IDX 4 1 21 2 26 3 15 4 25 5 5 6 6 7 23 8 16 9 14 10 24 11 20 12
REMARK SMILES IDX 22 13 17 14 19 15 18 16 7 18 8 19 9 20 10 21 11 22 12 23
REMARK SMILES IDX 13 24 3 25 2 26 1 27
REMARK H PARENT 21 17
ROOT
ATOM      1  N   UNL     1      99.772 121.944 114.788  1.00  0.00    -0.295 NA
ATOM      2  N   UNL     1     102.333 127.373 115.503  1.00  0.00    -0.361 N 
ATOM      3  C   UNL     1     100.277 123.226 115.386  1.00  0.00     0.091 C 
ATOM      4  C   UNL     1      99.185 124.053 116.147  1.00  0.00    -0.026 C 
ATOM      5  C   UNL     1     101.184 124.046 114.395  1.00  0.00     0.061 C 
ATOM      6  C   UNL     1      98.961 121.232 115.800  1.00  0.00     0.102 C 
ATOM      7  C   UNL     1      97.735 122.028 116.285  1.00  0.00     0.116 C 
ATOM      8  C   UNL     1     101.538 125.371 114.971  1.00  0.00    -0.020 A 
ATOM      9  C   UNL     1      99.523 125.449 116.528  1.00  0.00    -0.011 A 
ATOM     10  C   UNL     1      98.015 123.490 116.515  1.00  0.00    -0.007 C 
ATOM     11  C   UNL     1     100.689 125.956 115.935  1.00  0.00     0.010 A 
ATOM     12  C   UNL     1     101.182 127.214 116.245  1.00  0.00     0.046 A 
ATOM     13  C   UNL     1     102.556 126.261 114.721  1.00  0.00     0.087 A 
ATOM     14  C   UNL     1      98.859 126.288 117.434  1.00  0.00     0.009 A 
ATOM     15  C   UNL     1     100.533 128.055 117.150  1.00  0.00     0.027 A 
ATOM     16  C   UNL     1      99.356 127.565 117.733  1.00  0.00     0.003 A 
ATOM     17  H   UNL     1     102.916 128.198 115.518  1.00  0.00     0.166 HD
ENDROOT
BRANCH   7  18
ATOM     18  C   UNL     1      97.063 121.309 117.471  1.00  0.00     0.230 C 
ATOM     19  O   UNL     1      95.833 121.159 117.427  1.00  0.00    -0.274 OA
ATOM     20  N   UNL     1      97.797 120.796 118.538  1.00  0.00    -0.343 N 
BRANCH  20  21
ATOM     21  C   UNL     1      97.063 120.025 119.547  1.00  0.00     0.116 C 
ATOM     22  C   UNL     1      96.908 120.804 120.844  1.00  0.00     0.027 C 
ENDBRANCH  20  21
BRANCH  20  23
ATOM     23  C   UNL     1      99.242 120.931 118.753  1.00  0.00     0.116 C 
ATOM     24  C   UNL     1      99.937 119.581 118.867  1.00  0.00     0.027 C 
ENDBRANCH  20  23
ENDBRANCH   7  18
BRANCH   1  25
ATOM     25  C   UNL     1      99.060 122.135 113.509  1.00  0.00     0.085 C 
BRANCH  25  26
ATOM     26  C   UNL     1      99.110 120.949 112.530  1.00  0.00     0.012 C 
ATOM     27  C   UNL     1     100.527 120.510 112.189  1.00  0.00     0.005 C 
ENDBRANCH  25  26
ENDBRANCH   1  25
TORSDOF 5
ENDMDL
MODEL 10
REMARK VINA RESULT:    -5.920      2.052      2.944
REMARK INTER + INTRA:          -8.362
REMARK INTER:                  -8.125
REMARK INTRA:                  -0.237
REMARK UNBOUND:                -0.712
REMARK SMILES CCCN1C[C@H](C(=O)N(CC)CC)C=C2c3cccc4[nH]cc(c34)C[C@H]21
REMARK SMILES IDX 4 1 21 2 26 3 15 4 25 5 5 6 6 7 23 8 16 9 14 10 24 11 20 12
REMARK SMILES IDX 22 13 17 14 19 15 18 16 7 18 8 19 9 20 10 21 11 22 12 23
REMARK SMILES IDX 13 24 3 25 2 26 1 27
REMARK H PARENT 21 17
ROOT
ATOM      1  N   UNL     1      97.677 124.098 116.586  1.00  0.00    -0.295 NA
ATOM      2  N   UNL     1      95.166 119.102 118.881  1.00  0.00    -0.361 N 
ATOM      3  C   UNL     1      96.802 123.159 117.367  1.00  0.00     0.091 C 
ATOM      4  C   UNL     1      96.791 123.426 118.911  1.00  0.00    -0.026 C 
ATOM      5  C   UNL     1      96.984 121.656 116.937  1.00  0.00     0.061 C 
ATOM      6  C   UNL     1      97.412 125.483 117.036  1.00  0.00     0.102 C 
ATOM      7  C   UNL     1      97.703 125.717 118.530  1.00  0.00     0.116 C 
ATOM      8  C   UNL     1      96.215 120.751 117.831  1.00  0.00    -0.020 A 
ATOM      9  C   UNL     1      96.182 122.389 119.782  1.00  0.00    -0.011 A 
ATOM     10  C   UNL     1      97.243 124.592 119.420  1.00  0.00    -0.007 C 
ATOM     11  C   UNL     1      95.915 121.168 119.146  1.00  0.00     0.010 A 
ATOM     12  C   UNL     1      95.279 120.123 119.800  1.00  0.00     0.046 A 
ATOM     13  C   UNL     1      95.736 119.470 117.683  1.00  0.00     0.087 A 
ATOM     14  C   UNL     1      95.797 122.498 121.126  1.00  0.00     0.009 A 
ATOM     15  C   UNL     1      94.887 120.224 121.136  1.00  0.00     0.027 A 
ATOM     16  C   UNL     1      95.166 121.434 121.786  1.00  0.00     0.003 A 
ATOM     17  H   UNL     1      94.741 118.204 119.071  1.00  0.00     0.166 HD
ENDROOT
BRANCH   7  18
ATOM     18  C   UNL     1      97.218 127.114 118.959  1.00  0.00     0.230 C 
ATOM     19  O   UNL     1      96.500 127.741 118.166  1.00  0.00    -0.274 OA
ATOM     20  N   UNL     1      97.522 127.652 120.208  1.00  0.00    -0.343 N 
BRANCH  20  21
ATOM     21  C   UNL     1      96.903 128.936 120.553  1.00  0.00     0.116 C 
ATOM     22  C   UNL     1      97.666 130.106 119.950  1.00  0.00     0.027 C 
ENDBRANCH  20  21
BRANCH  20  23
ATOM     23  C   UNL     1      98.388 127.057 121.231  1.00  0.00     0.116 C 
ATOM     24  C   UNL     1      98.646 128.005 122.393  1.00  0.00     0.027 C 
ENDBRANCH  20  23
ENDBRANCH   7  18
BRANCH   1  25
ATOM     25  C   UNL     1      99.108 123.741 116.632  1.00  0.00     0.085 C 
BRANCH  25  26
ATOM     26  C   UNL     1      99.820 123.641 115.272  1.00  0.00     0.012 C 
ATOM     27  C   UNL     1     100.151 122.210 114.872  1.00  0.00     0.005 C 
ENDBRANCH  25  26
ENDBRANCH   1  25
TORSDOF 5
ENDMDL
MODEL 11
REMARK VINA RESULT:    -5.912      2.651      8.018
REMARK INTER + INTRA:          -8.352
REMARK INTER:                  -7.683
REMARK INTRA:                  -0.669
REMARK UNBOUND:                -0.712
REMARK SMILES CCCN1C[C@H](C(=O)N(CC)CC)C=C2c3cccc4[nH]cc(c34)C[C@H]21
REMARK SMILES IDX 4 1 21 2 26 3 15 4 25 5 5 6 6 7 23 8 16 9 14 10 24 11 20 12
REMARK SMILES IDX 22 13 17 14 19 15 18 16 7 18 8 19 9 20 10 21 11 22 12 23
REMARK SMILES IDX 13 24 3 25 2 26 1 27
REMARK H PARENT 21 17
ROOT
ATOM      1  N   UNL     1      97.537 130.121 121.975  1.00  0.00    -0.295 NA
ATOM      2  N   UNL     1      92.303 131.824 124.474  1.00  0.00    -0.361 N 
ATOM      3  C   UNL     1      96.168 130.104 122.591  1.00  0.00     0.091 C 
ATOM      4  C   UNL     1      95.088 129.355 121.737  1.00  0.00    -0.026 C 
ATOM      5  C   UNL     1      95.735 131.508 123.156  1.00  0.00     0.061 C 
ATOM      6  C   UNL     1      97.867 128.757 121.506  1.00  0.00     0.102 C 
ATOM      7  C   UNL     1      96.891 128.212 120.446  1.00  0.00     0.116 C 
ATOM      8  C   UNL     1      94.322 131.482 123.620  1.00  0.00    -0.020 A 
ATOM      9  C   UNL     1      93.666 129.524 122.129  1.00  0.00    -0.011 A 
ATOM     10  C   UNL     1      95.446 128.522 120.737  1.00  0.00    -0.007 C 
ATOM     11  C   UNL     1      93.428 130.542 123.063  1.00  0.00     0.010 A 
ATOM     12  C   UNL     1      92.166 130.779 123.587  1.00  0.00     0.046 A 
ATOM     13  C   UNL     1      93.609 132.264 124.498  1.00  0.00     0.087 A 
ATOM     14  C   UNL     1      92.556 128.766 121.726  1.00  0.00     0.009 A 
ATOM     15  C   UNL     1      91.057 130.026 123.197  1.00  0.00     0.027 A 
ATOM     16  C   UNL     1      91.280 129.017 122.249  1.00  0.00     0.003 A 
ATOM     17  H   UNL     1      91.547 132.222 125.014  1.00  0.00     0.166 HD
ENDROOT
BRANCH   7  18
ATOM     18  C   UNL     1      97.183 126.727 120.159  1.00  0.00     0.230 C 
ATOM     19  O   UNL     1      97.054 125.927 121.097  1.00  0.00    -0.274 OA
ATOM     20  N   UNL     1      97.535 126.273 118.890  1.00  0.00    -0.343 N 
BRANCH  20  21
ATOM     21  C   UNL     1      97.668 124.824 118.710  1.00  0.00     0.116 C 
ATOM     22  C   UNL     1      97.253 124.392 117.311  1.00  0.00     0.027 C 
ENDBRANCH  20  21
BRANCH  20  23
ATOM     23  C   UNL     1      97.769 127.097 117.699  1.00  0.00     0.116 C 
ATOM     24  C   UNL     1      99.152 127.733 117.699  1.00  0.00     0.027 C 
ENDBRANCH  20  23
ENDBRANCH   7  18
BRANCH   1  25
ATOM     25  C   UNL     1      97.694 131.145 120.924  1.00  0.00     0.085 C 
BRANCH  25  26
ATOM     26  C   UNL     1      98.744 132.235 121.199  1.00  0.00     0.012 C 
ATOM     27  C   UNL     1      98.880 132.580 122.676  1.00  0.00     0.005 C 
ENDBRANCH  25  26
ENDBRANCH   1  25
TORSDOF 5
ENDMDL
MODEL 12
REMARK VINA RESULT:    -5.908      1.348      1.744
REMARK INTER + INTRA:          -8.347
REMARK INTER:                  -7.621
REMARK INTRA:                  -0.726
REMARK UNBOUND:                -0.712
REMARK SMILES CCCN1C[C@H](C(=O)N(CC)CC)C=C2c3cccc4[nH]cc(c34)C[C@H]21
REMARK SMILES IDX 4 1 21 2 26 3 15 4 25 5 5 6 6 7 23 8 16 9 14 10 24 11 20 12
REMARK SMILES IDX 22 13 17 14 19 15 18 16 7 18 8 19 9 20 10 21 11 22 12 23
REMARK SMILES IDX 13 24 3 25 2 26 1 27
REMARK H PARENT 21 17
ROOT
ATOM      1  N   UNL     1      99.255 127.155 117.083  1.00  0.00    -0.295 NA
ATOM      2  N   UNL     1      98.023 121.342 115.972  1.00  0.00    -0.361 N 
ATOM      3  C   UNL     1      98.550 125.833 116.966  1.00  0.00     0.091 C 
ATOM      4  C   UNL     1      97.901 125.331 118.300  1.00  0.00    -0.026 C 
ATOM      5  C   UNL     1      99.389 124.764 116.171  1.00  0.00     0.061 C 
ATOM      6  C   UNL     1      98.379 128.099 117.812  1.00  0.00     0.102 C 
ATOM      7  C   UNL     1      98.021 127.640 119.238  1.00  0.00     0.116 C 
ATOM      8  C   UNL     1      98.724 123.434 116.207  1.00  0.00    -0.020 A 
ATOM      9  C   UNL     1      97.430 123.923 118.346  1.00  0.00    -0.011 A 
ATOM     10  C   UNL     1      97.704 126.170 119.339  1.00  0.00    -0.007 C 
ATOM     11  C   UNL     1      97.852 123.124 117.274  1.00  0.00     0.010 A 
ATOM     12  C   UNL     1      97.437 121.809 117.130  1.00  0.00     0.046 A 
ATOM     13  C   UNL     1      98.812 122.319 115.406  1.00  0.00     0.087 A 
ATOM     14  C   UNL     1      96.583 123.319 119.288  1.00  0.00     0.009 A 
ATOM     15  C   UNL     1      96.590 121.201 118.057  1.00  0.00     0.027 A 
ATOM     16  C   UNL     1      96.177 121.985 119.143  1.00  0.00     0.003 A 
ATOM     17  H   UNL     1      97.904 120.408 115.606  1.00  0.00     0.166 HD
ENDROOT
BRANCH   7  18
ATOM     18  C   UNL     1      96.957 128.569 119.851  1.00  0.00     0.230 C 
ATOM     19  O   UNL     1      95.843 128.600 119.310  1.00  0.00    -0.274 OA
ATOM     20  N   UNL     1      97.203 129.320 120.999  1.00  0.00    -0.343 N 
BRANCH  20  21
ATOM     21  C   UNL     1      96.076 130.073 121.561  1.00  0.00     0.116 C 
ATOM     22  C   UNL     1      96.138 131.543 121.177  1.00  0.00     0.027 C 
ENDBRANCH  20  21
BRANCH  20  23
ATOM     23  C   UNL     1      98.474 129.423 121.724  1.00  0.00     0.116 C 
ATOM     24  C   UNL     1      98.272 129.650 123.215  1.00  0.00     0.027 C 
ENDBRANCH  20  23
ENDBRANCH   7  18
BRANCH   1  25
ATOM     25  C   UNL     1     100.604 127.050 117.671  1.00  0.00     0.085 C 
BRANCH  25  26
ATOM     26  C   UNL     1     101.750 127.638 116.830  1.00  0.00     0.012 C 
ATOM     27  C   UNL     1     101.539 127.478 115.331  1.00  0.00     0.005 C 
ENDBRANCH  25  26
ENDBRANCH   1  25
TORSDOF 5
ENDMDL
MODEL 13
REMARK VINA RESULT:    -5.864      1.900      7.029
REMARK INTER + INTRA:          -8.290
REMARK INTER:                  -7.634
REMARK INTRA:                  -0.656
REMARK UNBOUND:                -0.712
REMARK SMILES CCCN1C[C@H](C(=O)N(CC)CC)C=C2c3cccc4[nH]cc(c34)C[C@H]21
REMARK SMILES IDX 4 1 21 2 26 3 15 4 25 5 5 6 6 7 23 8 16 9 14 10 24 11 20 12
REMARK SMILES IDX 22 13 17 14 19 15 18 16 7 18 8 19 9 20 10 21 11 22 12 23
REMARK SMILES IDX 13 24 3 25 2 26 1 27
REMARK H PARENT 21 17
ROOT
ATOM      1  N   UNL     1      98.700 127.768 119.981  1.00  0.00    -0.295 NA
ATOM      2  N   UNL     1      95.569 130.893 124.100  1.00  0.00    -0.361 N 
ATOM      3  C   UNL     1      97.846 128.134 121.161  1.00  0.00     0.091 C 
ATOM      4  C   UNL     1      96.456 127.411 121.196  1.00  0.00    -0.026 C 
ATOM      5  C   UNL     1      97.814 129.684 121.433  1.00  0.00     0.061 C 
ATOM      6  C   UNL     1      98.695 126.296 119.826  1.00  0.00     0.102 C 
ATOM      7  C   UNL     1      97.294 125.703 119.582  1.00  0.00     0.116 C 
ATOM      8  C   UNL     1      96.844 130.014 122.511  1.00  0.00    -0.020 A 
ATOM      9  C   UNL     1      95.446 127.913 122.162  1.00  0.00    -0.011 A 
ATOM     10  C   UNL     1      96.218 126.321 120.436  1.00  0.00    -0.007 C 
ATOM     11  C   UNL     1      95.759 129.144 122.757  1.00  0.00     0.010 A 
ATOM     12  C   UNL     1      94.957 129.713 123.735  1.00  0.00     0.046 A 
ATOM     13  C   UNL     1      96.713 131.090 123.358  1.00  0.00     0.087 A 
ATOM     14  C   UNL     1      94.263 127.290 122.587  1.00  0.00     0.009 A 
ATOM     15  C   UNL     1      93.782 129.098 124.169  1.00  0.00     0.027 A 
ATOM     16  C   UNL     1      93.450 127.876 123.568  1.00  0.00     0.003 A 
ATOM     17  H   UNL     1      95.213 131.531 124.798  1.00  0.00     0.166 HD
ENDROOT
BRANCH   7  18
ATOM     18  C   UNL     1      97.347 124.164 119.630  1.00  0.00     0.230 C 
ATOM     19  O   UNL     1      97.553 123.632 120.731  1.00  0.00    -0.274 OA
ATOM     20  N   UNL     1      97.125 123.380 118.500  1.00  0.00    -0.343 N 
BRANCH  20  21
ATOM     21  C   UNL     1      97.078 121.927 118.692  1.00  0.00     0.116 C 
ATOM     22  C   UNL     1      95.849 121.315 118.036  1.00  0.00     0.027 C 
ENDBRANCH  20  21
BRANCH  20  23
ATOM     23  C   UNL     1      96.913 123.858 117.130  1.00  0.00     0.116 C 
ATOM     24  C   UNL     1      98.150 123.685 116.260  1.00  0.00     0.027 C 
ENDBRANCH  20  23
ENDBRANCH   7  18
BRANCH   1  25
ATOM     25  C   UNL     1      98.327 128.479 118.743  1.00  0.00     0.085 C 
BRANCH  25  26
ATOM     26  C   UNL     1      98.782 127.823 117.428  1.00  0.00     0.012 C 
ATOM     27  C   UNL     1     100.281 127.939 117.187  1.00  0.00     0.005 C 
ENDBRANCH  25  26
ENDBRANCH   1  25
TORSDOF 5
ENDMDL
MODEL 14
REMARK VINA RESULT:    -5.861      3.631      7.095
REMARK INTER + INTRA:          -8.286
REMARK INTER:                  -7.445
REMARK INTRA:                  -0.841
REMARK UNBOUND:                -0.712
REMARK SMILES CCCN1C[C@H](C(=O)N(CC)CC)C=C2c3cccc4[nH]cc(c34)C[C@H]21
REMARK SMILES IDX 4 1 21 2 26 3 15 4 25 5 5 6 6 7 23 8 16 9 14 10 24 11 20 12
REMARK SMILES IDX 22 13 17 14 19 15 18 16 7 18 8 19 9 20 10 21 11 22 12 23
REMARK SMILES IDX 13 24 3 25 2 26 1 27
REMARK H PARENT 21 17
ROOT
ATOM      1  N   UNL     1      97.772 123.722 117.934  1.00  0.00    -0.295 NA
ATOM      2  N   UNL     1      94.191 120.796 121.826  1.00  0.00    -0.361 N 
ATOM      3  C   UNL     1      97.127 122.649 118.763  1.00  0.00     0.091 C 
ATOM      4  C   UNL     1      96.600 121.428 117.935  1.00  0.00    -0.026 C 
ATOM      5  C   UNL     1      96.131 123.224 119.837  1.00  0.00     0.061 C 
ATOM      6  C   UNL     1      98.711 123.090 116.981  1.00  0.00     0.102 C 
ATOM      7  C   UNL     1      98.039 122.101 116.011  1.00  0.00     0.116 C 
ATOM      8  C   UNL     1      95.406 122.126 120.531  1.00  0.00    -0.020 A 
ATOM      9  C   UNL     1      95.712 120.460 118.629  1.00  0.00    -0.011 A 
ATOM     10  C   UNL     1      97.006 121.220 116.664  1.00  0.00    -0.007 C 
ATOM     11  C   UNL     1      95.237 120.886 119.877  1.00  0.00     0.010 A 
ATOM     12  C   UNL     1      94.459 120.070 120.684  1.00  0.00     0.046 A 
ATOM     13  C   UNL     1      94.757 122.049 121.741  1.00  0.00     0.087 A 
ATOM     14  C   UNL     1      95.342 119.170 118.219  1.00  0.00     0.009 A 
ATOM     15  C   UNL     1      94.090 118.784 120.289  1.00  0.00     0.027 A 
ATOM     16  C   UNL     1      94.544 118.354 119.034  1.00  0.00     0.003 A 
ATOM     17  H   UNL     1      93.640 120.459 122.603  1.00  0.00     0.166 HD
ENDROOT
BRANCH   7  18
ATOM     18  C   UNL     1      99.103 121.343 115.193  1.00  0.00     0.230 C 
ATOM     19  O   UNL     1      99.455 120.229 115.605  1.00  0.00    -0.274 OA
ATOM     20  N   UNL     1      99.626 121.854 114.007  1.00  0.00    -0.343 N 
BRANCH  20  21
ATOM     21  C   UNL     1     100.539 120.989 113.252  1.00  0.00     0.116 C 
ATOM     22  C   UNL     1      99.844 120.341 112.064  1.00  0.00     0.027 C 
ENDBRANCH  20  21
BRANCH  20  23
ATOM     23  C   UNL     1      99.343 123.167 113.418  1.00  0.00     0.116 C 
ATOM     24  C   UNL     1     100.602 123.854 112.909  1.00  0.00     0.027 C 
ENDBRANCH  20  23
ENDBRANCH   7  18
BRANCH   1  25
ATOM     25  C   UNL     1      96.801 124.619 117.277  1.00  0.00     0.085 C 
BRANCH  25  26
ATOM     26  C   UNL     1      96.992 126.123 117.538  1.00  0.00     0.012 C 
ATOM     27  C   UNL     1      97.909 126.417 118.717  1.00  0.00     0.005 C 
ENDBRANCH  25  26
ENDBRANCH   1  25
TORSDOF 5
ENDMDL
MODEL 15
REMARK VINA RESULT:    -5.654      2.295      5.492
REMARK INTER + INTRA:          -8.018
REMARK INTER:                  -8.119
REMARK INTRA:                   0.101
REMARK UNBOUND:                -0.712
REMARK SMILES CCCN1C[C@H](C(=O)N(CC)CC)C=C2c3cccc4[nH]cc(c34)C[C@H]21
REMARK SMILES IDX 4 1 21 2 26 3 15 4 25 5 5 6 6 7 23 8 16 9 14 10 24 11 20 12
REMARK SMILES IDX 22 13 17 14 19 15 18 16 7 18 8 19 9 20 10 21 11 22 12 23
REMARK SMILES IDX 13 24 3 25 2 26 1 27
REMARK H PARENT 21 17
ROOT
ATOM      1  N   UNL     1      98.005 126.727 119.718  1.00  0.00    -0.295 NA
ATOM      2  N   UNL     1      95.520 121.217 119.818  1.00  0.00    -0.361 N 
ATOM      3  C   UNL     1      97.771 125.254 119.539  1.00  0.00     0.091 C 
ATOM      4  C   UNL     1      97.916 124.756 118.061  1.00  0.00    -0.026 C 
ATOM      5  C   UNL     1      96.497 124.741 120.309  1.00  0.00     0.061 C 
ATOM      6  C   UNL     1      99.237 127.106 118.990  1.00  0.00     0.102 C 
ATOM      7  C   UNL     1      99.172 126.830 117.476  1.00  0.00     0.116 C 
ATOM      8  C   UNL     1      96.218 123.317 119.985  1.00  0.00    -0.020 A 
ATOM      9  C   UNL     1      97.436 123.385 117.749  1.00  0.00    -0.011 A 
ATOM     10  C   UNL     1      98.529 125.513 117.127  1.00  0.00    -0.007 C 
ATOM     11  C   UNL     1      96.670 122.784 118.758  1.00  0.00     0.010 A 
ATOM     12  C   UNL     1      96.210 121.480 118.654  1.00  0.00     0.046 A 
ATOM     13  C   UNL     1      95.513 122.328 120.632  1.00  0.00     0.087 A 
ATOM     14  C   UNL     1      97.696 122.610 116.609  1.00  0.00     0.009 A 
ATOM     15  C   UNL     1      96.470 120.699 117.527  1.00  0.00     0.027 A 
ATOM     16  C   UNL     1      97.218 121.296 116.503  1.00  0.00     0.003 A 
ATOM     17  H   UNL     1      95.067 120.339 120.030  1.00  0.00     0.166 HD
ENDROOT
BRANCH   7  18
ATOM     18  C   UNL     1     100.549 127.064 116.828  1.00  0.00     0.230 C 
ATOM     19  O   UNL     1     101.172 128.084 117.157  1.00  0.00    -0.274 OA
ATOM     20  N   UNL     1     101.114 126.151 115.940  1.00  0.00    -0.343 N 
BRANCH  20  21
ATOM     21  C   UNL     1     102.482 126.419 115.483  1.00  0.00     0.116 C 
ATOM     22  C   UNL     1     102.495 127.075 114.110  1.00  0.00     0.027 C 
ENDBRANCH  20  21
BRANCH  20  23
ATOM     23  C   UNL     1     100.488 124.929 115.423  1.00  0.00     0.116 C 
ATOM     24  C   UNL     1     101.506 123.833 115.142  1.00  0.00     0.027 C 
ENDBRANCH  20  23
ENDBRANCH   7  18
BRANCH   1  25
ATOM     25  C   UNL     1      96.841 127.555 119.351  1.00  0.00     0.085 C 
BRANCH  25  26
ATOM     26  C   UNL     1      96.472 128.672 120.342  1.00  0.00     0.012 C 
ATOM     27  C   UNL     1      95.714 128.167 121.562  1.00  0.00     0.005 C 
ENDBRANCH  25  26
ENDBRANCH   1  25
TORSDOF 5
ENDMDL
MODEL 16
REMARK VINA RESULT:    -5.626      2.452      7.572
REMARK INTER + INTRA:          -7.982
REMARK INTER:                  -7.836
REMARK INTRA:                  -0.146
REMARK UNBOUND:                -0.712
REMARK SMILES CCCN1C[C@H](C(=O)N(CC)CC)C=C2c3cccc4[nH]cc(c34)C[C@H]21
REMARK SMILES IDX 4 1 21 2 26 3 15 4 25 5 5 6 6 7 23 8 16 9 14 10 24 11 20 12
REMARK SMILES IDX 22 13 17 14 19 15 18 16 7 18 8 19 9 20 10 21 11 22 12 23
REMARK SMILES IDX 13 24 3 25 2 26 1 27
REMARK H PARENT 21 17
ROOT
ATOM      1  N   UNL     1      97.329 125.978 118.980  1.00  0.00    -0.295 NA
ATOM      2  N   UNL     1      94.760 130.259 122.387  1.00  0.00    -0.361 N 
ATOM      3  C   UNL     1      96.855 127.303 119.504  1.00  0.00     0.091 C 
ATOM      4  C   UNL     1      97.991 128.368 119.679  1.00  0.00    -0.026 C 
ATOM      5  C   UNL     1      95.864 127.159 120.719  1.00  0.00     0.061 C 
ATOM      6  C   UNL     1      98.224 126.214 117.825  1.00  0.00     0.102 C 
ATOM      7  C   UNL     1      99.473 127.047 118.168  1.00  0.00     0.116 C 
ATOM      8  C   UNL     1      95.538 128.489 121.300  1.00  0.00    -0.020 A 
ATOM      9  C   UNL     1      97.665 129.599 120.443  1.00  0.00    -0.011 A 
ATOM     10  C   UNL     1      99.193 128.209 119.086  1.00  0.00    -0.007 C 
ATOM     11  C   UNL     1      96.451 129.554 121.144  1.00  0.00     0.010 A 
ATOM     12  C   UNL     1      95.967 130.649 121.845  1.00  0.00     0.046 A 
ATOM     13  C   UNL     1      94.493 128.946 122.067  1.00  0.00     0.087 A 
ATOM     14  C   UNL     1      98.385 130.801 120.505  1.00  0.00     0.009 A 
ATOM     15  C   UNL     1      96.672 131.851 121.907  1.00  0.00     0.027 A 
ATOM     16  C   UNL     1      97.897 131.901 121.226  1.00  0.00     0.003 A 
ATOM     17  H   UNL     1      94.170 130.850 122.955  1.00  0.00     0.166 HD
ENDROOT
BRANCH   7  18
ATOM     18  C   UNL     1     100.243 127.415 116.886  1.00  0.00     0.230 C 
ATOM     19  O   UNL     1     100.530 128.608 116.712  1.00  0.00    -0.274 OA
ATOM     20  N   UNL     1     100.653 126.451 115.967  1.00  0.00    -0.343 N 
BRANCH  20  21
ATOM     21  C   UNL     1     101.485 126.904 114.847  1.00  0.00     0.116 C 
ATOM     22  C   UNL     1     102.963 126.898 115.208  1.00  0.00     0.027 C 
ENDBRANCH  20  21
BRANCH  20  23
ATOM     23  C   UNL     1     100.354 125.016 116.010  1.00  0.00     0.116 C 
ATOM     24  C   UNL     1     100.629 124.328 114.680  1.00  0.00     0.027 C 
ENDBRANCH  20  23
ENDBRANCH   7  18
BRANCH   1  25
ATOM     25  C   UNL     1      97.939 125.121 120.016  1.00  0.00     0.085 C 
BRANCH  25  26
ATOM     26  C   UNL     1      97.296 123.737 120.207  1.00  0.00     0.012 C 
ATOM     27  C   UNL     1      96.543 123.249 118.977  1.00  0.00     0.005 C 
ENDBRANCH  25  26
ENDBRANCH   1  25
TORSDOF 5
ENDMDL
MODEL 17
REMARK VINA RESULT:    -5.608      4.457      7.091
REMARK INTER + INTRA:          -7.959
REMARK INTER:                  -7.426
REMARK INTRA:                  -0.533
REMARK UNBOUND:                -0.712
REMARK SMILES CCCN1C[C@H](C(=O)N(CC)CC)C=C2c3cccc4[nH]cc(c34)C[C@H]21
REMARK SMILES IDX 4 1 21 2 26 3 15 4 25 5 5 6 6 7 23 8 16 9 14 10 24 11 20 12
REMARK SMILES IDX 22 13 17 14 19 15 18 16 7 18 8 19 9 20 10 21 11 22 12 23
REMARK SMILES IDX 13 24 3 25 2 26 1 27
REMARK H PARENT 21 17
ROOT
ATOM      1  N   UNL     1      96.802 119.851 116.636  1.00  0.00    -0.295 NA
ATOM      2  N   UNL     1     101.245 122.430 113.451  1.00  0.00    -0.361 N 
ATOM      3  C   UNL     1      97.990 120.679 116.240  1.00  0.00     0.091 C 
ATOM      4  C   UNL     1      97.852 122.203 116.578  1.00  0.00    -0.026 C 
ATOM      5  C   UNL     1      98.510 120.348 114.792  1.00  0.00     0.061 C 
ATOM      6  C   UNL     1      96.409 120.208 118.017  1.00  0.00     0.102 C 
ATOM      7  C   UNL     1      96.016 121.688 118.188  1.00  0.00     0.116 C 
ATOM      8  C   UNL     1      99.587 121.290 114.385  1.00  0.00    -0.020 A 
ATOM      9  C   UNL     1      98.845 123.131 115.981  1.00  0.00    -0.011 A 
ATOM     10  C   UNL     1      96.915 122.642 117.446  1.00  0.00    -0.007 C 
ATOM     11  C   UNL     1      99.644 122.572 114.973  1.00  0.00     0.010 A 
ATOM     12  C   UNL     1     100.668 123.284 114.367  1.00  0.00     0.046 A 
ATOM     13  C   UNL     1     100.592 121.217 113.449  1.00  0.00     0.087 A 
ATOM     14  C   UNL     1      99.115 124.462 116.334  1.00  0.00     0.009 A 
ATOM     15  C   UNL     1     100.949 124.606 114.716  1.00  0.00     0.027 A 
ATOM     16  C   UNL     1     100.144 125.181 115.709  1.00  0.00     0.003 A 
ATOM     17  H   UNL     1     102.023 122.672 112.853  1.00  0.00     0.166 HD
ENDROOT
BRANCH   7  18
ATOM     18  C   UNL     1      95.815 122.022 119.678  1.00  0.00     0.230 C 
ATOM     19  O   UNL     1      96.676 122.724 120.228  1.00  0.00    -0.274 OA
ATOM     20  N   UNL     1      94.692 121.602 120.386  1.00  0.00    -0.343 N 
BRANCH  20  21
ATOM     21  C   UNL     1      94.549 122.085 121.764  1.00  0.00     0.116 C 
ATOM     22  C   UNL     1      93.268 122.885 121.948  1.00  0.00     0.027 C 
ENDBRANCH  20  21
BRANCH  20  23
ATOM     23  C   UNL     1      93.616 120.737 119.890  1.00  0.00     0.116 C 
ATOM     24  C   UNL     1      93.598 119.383 120.585  1.00  0.00     0.027 C 
ENDBRANCH  20  23
ENDBRANCH   7  18
BRANCH   1  25
ATOM     25  C   UNL     1      95.682 119.936 115.679  1.00  0.00     0.085 C 
BRANCH  25  26
ATOM     26  C   UNL     1      95.469 118.704 114.783  1.00  0.00     0.012 C 
ATOM     27  C   UNL     1      94.134 118.716 114.051  1.00  0.00     0.005 C 
ENDBRANCH  25  26
ENDBRANCH   1  25
TORSDOF 5
ENDMDL
MODEL 18
REMARK VINA RESULT:    -5.475      2.993      6.537
REMARK INTER + INTRA:          -7.787
REMARK INTER:                  -7.624
REMARK INTRA:                  -0.163
REMARK UNBOUND:                -0.712
REMARK SMILES CCCN1C[C@H](C(=O)N(CC)CC)C=C2c3cccc4[nH]cc(c34)C[C@H]21
REMARK SMILES IDX 4 1 21 2 26 3 15 4 25 5 5 6 6 7 23 8 16 9 14 10 24 11 20 12
REMARK SMILES IDX 22 13 17 14 19 15 18 16 7 18 8 19 9 20 10 21 11 22 12 23
REMARK SMILES IDX 13 24 3 25 2 26 1 27
REMARK H PARENT 21 17
ROOT
ATOM      1  N   UNL     1      98.055 125.427 118.207  1.00  0.00    -0.295 NA
ATOM      2  N   UNL     1      94.744 121.114 120.848  1.00  0.00    -0.361 N 
ATOM      3  C   UNL     1      97.546 124.096 118.682  1.00  0.00     0.091 C 
ATOM      4  C   UNL     1      97.319 123.050 117.537  1.00  0.00    -0.026 C 
ATOM      5  C   UNL     1      96.375 124.228 119.725  1.00  0.00     0.061 C 
ATOM      6  C   UNL     1      99.169 125.202 117.260  1.00  0.00     0.102 C 
ATOM      7  C   UNL     1      98.771 124.391 116.013  1.00  0.00     0.116 C 
ATOM      8  C   UNL     1      95.804 122.894 120.054  1.00  0.00    -0.020 A 
ATOM      9  C   UNL     1      96.565 121.816 117.875  1.00  0.00    -0.011 A 
ATOM     10  C   UNL     1      97.861 123.228 116.314  1.00  0.00    -0.007 C 
ATOM     11  C   UNL     1      95.916 121.843 119.118  1.00  0.00     0.010 A 
ATOM     12  C   UNL     1      95.233 120.743 119.614  1.00  0.00     0.046 A 
ATOM     13  C   UNL     1      95.080 122.422 121.124  1.00  0.00     0.087 A 
ATOM     14  C   UNL     1      96.468 120.626 117.139  1.00  0.00     0.009 A 
ATOM     15  C   UNL     1      95.136 119.553 118.892  1.00  0.00     0.027 A 
ATOM     16  C   UNL     1      95.765 119.521 117.639  1.00  0.00     0.003 A 
ATOM     17  H   UNL     1      94.199 120.515 121.453  1.00  0.00     0.166 HD
ENDROOT
BRANCH   7  18
ATOM     18  C   UNL     1     100.018 124.032 115.184  1.00  0.00     0.230 C 
ATOM     19  O   UNL     1     100.997 124.788 115.266  1.00  0.00    -0.274 OA
ATOM     20  N   UNL     1     100.081 122.880 114.403  1.00  0.00    -0.343 N 
BRANCH  20  21
ATOM     21  C   UNL     1     101.363 122.580 113.756  1.00  0.00     0.116 C 
ATOM     22  C   UNL     1     101.296 122.798 112.251  1.00  0.00     0.027 C 
ENDBRANCH  20  21
BRANCH  20  23
ATOM     23  C   UNL     1      98.999 121.918 114.171  1.00  0.00     0.116 C 
ATOM     24  C   UNL     1      99.433 120.485 114.444  1.00  0.00     0.027 C 
ENDBRANCH  20  23
ENDBRANCH   7  18
BRANCH   1  25
ATOM     25  C   UNL     1      96.997 126.297 117.656  1.00  0.00     0.085 C 
BRANCH  25  26
ATOM     26  C   UNL     1      97.135 127.798 117.961  1.00  0.00     0.012 C 
ATOM     27  C   UNL     1      96.729 128.162 119.383  1.00  0.00     0.005 C 
ENDBRANCH  25  26
ENDBRANCH   1  25
TORSDOF 5
ENDMDL
MODEL 19
REMARK VINA RESULT:    -5.270      3.690      5.485
REMARK INTER + INTRA:          -7.522
REMARK INTER:                  -6.864
REMARK INTRA:                  -0.658
REMARK UNBOUND:                -0.712
REMARK SMILES CCCN1C[C@H](C(=O)N(CC)CC)C=C2c3cccc4[nH]cc(c34)C[C@H]21
REMARK SMILES IDX 4 1 21 2 26 3 15 4 25 5 5 6 6 7 23 8 16 9 14 10 24 11 20 12
REMARK SMILES IDX 22 13 17 14 19 15 18 16 7 18 8 19 9 20 10 21 11 22 12 23
REMARK SMILES IDX 13 24 3 25 2 26 1 27
REMARK H PARENT 21 17
ROOT
ATOM      1  N   UNL     1     100.960 125.499 114.255  1.00  0.00    -0.295 NA
ATOM      2  N   UNL     1     100.913 120.247 111.262  1.00  0.00    -0.361 N 
ATOM      3  C   UNL     1     100.534 124.181 113.674  1.00  0.00     0.091 C 
ATOM      4  C   UNL     1      99.997 123.157 114.732  1.00  0.00    -0.026 C 
ATOM      5  C   UNL     1     101.569 123.608 112.636  1.00  0.00     0.061 C 
ATOM      6  C   UNL     1      99.914 125.970 115.189  1.00  0.00     0.102 C 
ATOM      7  C   UNL     1      99.654 125.011 116.366  1.00  0.00     0.116 C 
ATOM      8  C   UNL     1     101.183 122.240 112.200  1.00  0.00    -0.020 A 
ATOM      9  C   UNL     1      99.816 121.750 114.293  1.00  0.00    -0.011 A 
ATOM     10  C   UNL     1      99.635 123.558 115.969  1.00  0.00    -0.007 C 
ATOM     11  C   UNL     1     100.390 121.440 113.052  1.00  0.00     0.010 A 
ATOM     12  C   UNL     1     100.245 120.191 112.467  1.00  0.00     0.046 A 
ATOM     13  C   UNL     1     101.492 121.486 111.092  1.00  0.00     0.087 A 
ATOM     14  C   UNL     1      99.105 120.723 114.934  1.00  0.00     0.009 A 
ATOM     15  C   UNL     1      99.535 119.166 113.092  1.00  0.00     0.027 A 
ATOM     16  C   UNL     1      98.973 119.458 114.343  1.00  0.00     0.003 A 
ATOM     17  H   UNL     1     100.983 119.480 110.609  1.00  0.00     0.166 HD
ENDROOT
BRANCH   7  18
ATOM     18  C   UNL     1      98.425 125.472 117.173  1.00  0.00     0.230 C 
ATOM     19  O   UNL     1      97.341 124.924 116.928  1.00  0.00    -0.274 OA
ATOM     20  N   UNL     1      98.517 126.432 118.178  1.00  0.00    -0.343 N 
BRANCH  20  21
ATOM     21  C   UNL     1      97.306 126.700 118.961  1.00  0.00     0.116 C 
ATOM     22  C   UNL     1      97.376 126.058 120.338  1.00  0.00     0.027 C 
ENDBRANCH  20  21
BRANCH  20  23
ATOM     23  C   UNL     1      99.711 127.197 118.552  1.00  0.00     0.116 C 
ATOM     24  C   UNL     1      99.960 128.373 117.619  1.00  0.00     0.027 C 
ENDBRANCH  20  23
ENDBRANCH   7  18
BRANCH   1  25
ATOM     25  C   UNL     1     102.303 125.464 114.866  1.00  0.00     0.085 C 
BRANCH  25  26
ATOM     26  C   UNL     1     103.035 126.814 114.958  1.00  0.00     0.012 C 
ATOM     27  C   UNL     1     103.047 127.395 116.365  1.00  0.00     0.005 C 
ENDBRANCH  25  26
ENDBRANCH   1  25
TORSDOF 5
ENDMDL
MODEL 20
REMARK VINA RESULT:    -5.062      2.085      6.929
REMARK INTER + INTRA:          -7.254
REMARK INTER:                  -6.512
REMARK INTRA:                  -0.741
REMARK UNBOUND:                -0.712
REMARK SMILES CCCN1C[C@H](C(=O)N(CC)CC)C=C2c3cccc4[nH]cc(c34)C[C@H]21
REMARK SMILES IDX 4 1 21 2 26 3 15 4 25 5 5 6 6 7 23 8 16 9 14 10 24 11 20 12
REMARK SMILES IDX 22 13 17 14 19 15 18 16 7 18 8 19 9 20 10 21 11 22 12 23
REMARK SMILES IDX 13 24 3 25 2 26 1 27
REMARK H PARENT 21 17
ROOT
ATOM      1  N   UNL     1      98.390 126.778 119.575  1.00  0.00    -0.295 NA
ATOM      2  N   UNL     1      95.672 130.798 123.179  1.00  0.00    -0.361 N 
ATOM      3  C   UNL     1      97.660 127.414 120.723  1.00  0.00     0.091 C 
ATOM      4  C   UNL     1      96.291 126.735 121.069  1.00  0.00    -0.026 C 
ATOM      5  C   UNL     1      97.639 128.985 120.637  1.00  0.00     0.061 C 
ATOM      6  C   UNL     1      98.386 125.310 119.761  1.00  0.00     0.102 C 
ATOM      7  C   UNL     1      96.975 124.694 119.807  1.00  0.00     0.116 C 
ATOM      8  C   UNL     1      96.783 129.564 121.707  1.00  0.00    -0.020 A 
ATOM      9  C   UNL     1      95.382 127.456 121.996  1.00  0.00    -0.011 A 
ATOM     10  C   UNL     1      95.987 125.504 120.606  1.00  0.00    -0.007 C 
ATOM     11  C   UNL     1      95.741 128.787 122.257  1.00  0.00     0.010 A 
ATOM     12  C   UNL     1      95.040 129.573 123.159  1.00  0.00     0.046 A 
ATOM     13  C   UNL     1      96.729 130.806 122.296  1.00  0.00     0.087 A 
ATOM     14  C   UNL     1      94.258 126.961 122.674  1.00  0.00     0.009 A 
ATOM     15  C   UNL     1      93.924 129.088 123.843  1.00  0.00     0.027 A 
ATOM     16  C   UNL     1      93.545 127.765 123.575  1.00  0.00     0.003 A 
ATOM     17  H   UNL     1      95.384 131.583 123.747  1.00  0.00     0.166 HD
ENDROOT
BRANCH   7  18
ATOM     18  C   UNL     1      97.051 123.206 120.199  1.00  0.00     0.230 C 
ATOM     19  O   UNL     1      98.060 122.825 120.810  1.00  0.00    -0.274 OA
ATOM     20  N   UNL     1      96.013 122.316 119.929  1.00  0.00    -0.343 N 
BRANCH  20  21
ATOM     21  C   UNL     1      96.145 120.954 120.458  1.00  0.00     0.116 C 
ATOM     22  C   UNL     1      96.441 119.951 119.354  1.00  0.00     0.027 C 
ENDBRANCH  20  21
BRANCH  20  23
ATOM     23  C   UNL     1      94.784 122.603 119.182  1.00  0.00     0.116 C 
ATOM     24  C   UNL     1      93.538 122.458 120.044  1.00  0.00     0.027 C 
ENDBRANCH  20  23
ENDBRANCH   7  18
BRANCH   1  25
ATOM     25  C   UNL     1      97.879 127.193 118.254  1.00  0.00     0.085 C 
BRANCH  25  26
ATOM     26  C   UNL     1      98.831 128.055 117.406  1.00  0.00     0.012 C 
ATOM     27  C   UNL     1     100.255 127.517 117.367  1.00  0.00     0.005 C 
ENDBRANCH  25  26
ENDBRANCH   1  25
TORSDOF 5
ENDMDL
