MODEL 1
REMARK VINA RESULT:    -7.930      0.000      0.000
REMARK INTER + INTRA:          -9.845
REMARK INTER:                 -10.248
REMARK INTRA:                   0.403
REMARK UNBOUND:                 0.403
REMARK SMILES CCCN1C[C@H](C(=O)N(CC)CC)C=C2c3cccc4[nH]cc(c34)C[C@H]21
REMARK SMILES IDX 4 1 21 2 26 3 15 4 25 5 5 6 6 7 23 8 16 9 14 10 24 11 20 12
REMARK SMILES IDX 22 13 17 14 19 15 18 16 7 18 8 19 9 20 10 21 11 22 12 23
REMARK SMILES IDX 13 24 3 25 2 26 1 27
REMARK H PARENT 21 17
ROOT
ATOM      1  N   UNL     1     100.978 118.878  78.133  1.00  0.00    -0.295 NA
ATOM      2  N   UNL     1     101.302 115.209  82.926  1.00  0.00    -0.361 N 
ATOM      3  C   UNL     1     100.704 118.206  79.448  1.00  0.00     0.091 C 
ATOM      4  C   UNL     1     100.643 119.186  80.670  1.00  0.00    -0.026 C 
ATOM      5  C   UNL     1     101.566 116.906  79.661  1.00  0.00     0.061 C 
ATOM      6  C   UNL     1     100.102 120.064  78.012  1.00  0.00     0.102 C 
ATOM      7  C   UNL     1     100.319 121.113  79.118  1.00  0.00     0.116 C 
ATOM      8  C   UNL     1     101.373 116.359  81.030  1.00  0.00    -0.020 A 
ATOM      9  C   UNL     1     100.653 118.589  82.029  1.00  0.00    -0.011 A 
ATOM     10  C   UNL     1     100.503 120.516  80.490  1.00  0.00    -0.007 C 
ATOM     11  C   UNL     1     100.976 117.224  82.072  1.00  0.00     0.010 A 
ATOM     12  C   UNL     1     100.955 116.502  83.255  1.00  0.00     0.046 A 
ATOM     13  C   UNL     1     101.564 115.111  81.577  1.00  0.00     0.087 A 
ATOM     14  C   UNL     1     100.331 119.199  83.251  1.00  0.00     0.009 A 
ATOM     15  C   UNL     1     100.630 117.098  84.474  1.00  0.00     0.027 A 
ATOM     16  C   UNL     1     100.325 118.466  84.446  1.00  0.00     0.003 A 
ATOM     17  H   UNL     1     101.372 114.448  83.588  1.00  0.00     0.166 HD
ENDROOT
BRANCH   7  18
ATOM     18  C   UNL     1      99.243 122.212  79.036  1.00  0.00     0.230 C 
ATOM     19  O   UNL     1      98.954 122.648  77.913  1.00  0.00    -0.274 OA
ATOM     20  N   UNL     1      98.573 122.678  80.166  1.00  0.00    -0.343 N 
BRANCH  20  21
ATOM     21  C   UNL     1      97.483 123.636  79.950  1.00  0.00     0.116 C 
ATOM     22  C   UNL     1      97.573 124.812  80.912  1.00  0.00     0.027 C 
ENDBRANCH  20  21
BRANCH  20  23
ATOM     23  C   UNL     1      98.831 122.295  81.558  1.00  0.00     0.116 C 
ATOM     24  C   UNL     1      97.702 121.461  82.146  1.00  0.00     0.027 C 
ENDBRANCH  20  23
ENDBRANCH   7  18
BRANCH   1  25
ATOM     25  C   UNL     1     102.405 119.191  77.921  1.00  0.00     0.085 C 
BRANCH  25  26
ATOM     26  C   UNL     1     103.221 118.128  77.166  1.00  0.00     0.012 C 
ATOM     27  C   UNL     1     104.503 117.732  77.886  1.00  0.00     0.005 C 
ENDBRANCH  25  26
ENDBRANCH   1  25
TORSDOF 5
ENDMDL
MODEL 2
REMARK VINA RESULT:    -7.428      3.046      6.308
REMARK INTER + INTRA:          -9.196
REMARK INTER:                  -8.623
REMARK INTRA:                  -0.574
REMARK UNBOUND:                 0.403
REMARK SMILES CCCN1C[C@H](C(=O)N(CC)CC)C=C2c3cccc4[nH]cc(c34)C[C@H]21
REMARK SMILES IDX 4 1 21 2 26 3 15 4 25 5 5 6 6 7 23 8 16 9 14 10 24 11 20 12
REMARK SMILES IDX 22 13 17 14 19 15 18 16 7 18 8 19 9 20 10 21 11 22 12 23
REMARK SMILES IDX 13 24 3 25 2 26 1 27
REMARK H PARENT 21 17
ROOT
ATOM      1  N   UNL     1     100.962 116.080  82.941  1.00  0.00    -0.295 NA
ATOM      2  N   UNL     1     100.424 119.870  78.263  1.00  0.00    -0.361 N 
ATOM      3  C   UNL     1     100.999 117.307  82.076  1.00  0.00     0.091 C 
ATOM      4  C   UNL     1     100.258 118.545  82.686  1.00  0.00    -0.026 C 
ATOM      5  C   UNL     1     100.679 116.998  80.566  1.00  0.00     0.061 C 
ATOM      6  C   UNL     1     101.306 116.464  84.329  1.00  0.00     0.102 C 
ATOM      7  C   UNL     1     100.340 117.491  84.946  1.00  0.00     0.116 C 
ATOM      8  C   UNL     1     100.580 118.255  79.776  1.00  0.00    -0.020 A 
ATOM      9  C   UNL     1     100.007 119.704  81.792  1.00  0.00    -0.011 A 
ATOM     10  C   UNL     1      99.935 118.589  83.996  1.00  0.00    -0.007 C 
ATOM     11  C   UNL     1     100.233 119.457  80.430  1.00  0.00     0.010 A 
ATOM     12  C   UNL     1     100.117 120.455  79.473  1.00  0.00     0.046 A 
ATOM     13  C   UNL     1     100.701 118.532  78.435  1.00  0.00     0.087 A 
ATOM     14  C   UNL     1      99.630 121.009  82.142  1.00  0.00     0.009 A 
ATOM     15  C   UNL     1      99.749 121.757  79.813  1.00  0.00     0.027 A 
ATOM     16  C   UNL     1      99.501 122.010  81.169  1.00  0.00     0.003 A 
ATOM     17  H   UNL     1     100.424 120.354  77.376  1.00  0.00     0.166 HD
ENDROOT
BRANCH   7  18
ATOM     18  C   UNL     1     100.875 117.984  86.304  1.00  0.00     0.230 C 
ATOM     19  O   UNL     1     102.064 117.753  86.569  1.00  0.00    -0.274 OA
ATOM     20  N   UNL     1     100.083 118.705  87.194  1.00  0.00    -0.343 N 
BRANCH  20  21
ATOM     21  C   UNL     1     100.735 119.227  88.400  1.00  0.00     0.116 C 
ATOM     22  C   UNL     1     100.003 118.799  89.663  1.00  0.00     0.027 C 
ENDBRANCH  20  21
BRANCH  20  23
ATOM     23  C   UNL     1      98.658 119.018  87.044  1.00  0.00     0.116 C 
ATOM     24  C   UNL     1      98.415 120.498  86.786  1.00  0.00     0.027 C 
ENDBRANCH  20  23
ENDBRANCH   7  18
BRANCH   1  25
ATOM     25  C   UNL     1      99.692 115.334  82.848  1.00  0.00     0.085 C 
BRANCH  25  26
ATOM     26  C   UNL     1      99.764 113.971  82.139  1.00  0.00     0.012 C 
ATOM     27  C   UNL     1      99.090 113.967  80.774  1.00  0.00     0.005 C 
ENDBRANCH  25  26
ENDBRANCH   1  25
TORSDOF 5
ENDMDL
MODEL 3
REMARK VINA RESULT:    -7.411      4.585      7.834
REMARK INTER + INTRA:          -9.174
REMARK INTER:                  -8.324
REMARK INTRA:                  -0.850
REMARK UNBOUND:                 0.403
REMARK SMILES CCCN1C[C@H](C(=O)N(CC)CC)C=C2c3cccc4[nH]cc(c34)C[C@H]21
REMARK SMILES IDX 4 1 21 2 26 3 15 4 25 5 5 6 6 7 23 8 16 9 14 10 24 11 20 12
REMARK SMILES IDX 22 13 17 14 19 15 18 16 7 18 8 19 9 20 10 21 11 22 12 23
REMARK SMILES IDX 13 24 3 25 2 26 1 27
REMARK H PARENT 21 17
ROOT
ATOM      1  N   UNL     1     101.544 117.408  87.384  1.00  0.00    -0.295 NA
ATOM      2  N   UNL     1      97.334 120.503  90.424  1.00  0.00    -0.361 N 
ATOM      3  C   UNL     1     100.242 118.025  87.808  1.00  0.00     0.091 C 
ATOM      4  C   UNL     1      99.557 118.901  86.704  1.00  0.00    -0.026 C 
ATOM      5  C   UNL     1     100.310 118.668  89.243  1.00  0.00     0.061 C 
ATOM      6  C   UNL     1     101.372 116.803  86.044  1.00  0.00     0.102 C 
ATOM      7  C   UNL     1     100.965 117.813  84.955  1.00  0.00     0.116 C 
ATOM      8  C   UNL     1      99.051 119.394  89.560  1.00  0.00    -0.020 A 
ATOM      9  C   UNL     1      98.422 119.764  87.119  1.00  0.00    -0.011 A 
ATOM     10  C   UNL     1      99.932 118.811  85.410  1.00  0.00    -0.007 C 
ATOM     11  C   UNL     1      98.254 119.892  88.506  1.00  0.00     0.010 A 
ATOM     12  C   UNL     1      97.197 120.600  89.056  1.00  0.00     0.046 A 
ATOM     13  C   UNL     1      98.461 119.777  90.742  1.00  0.00     0.087 A 
ATOM     14  C   UNL     1      97.479 120.412  86.307  1.00  0.00     0.009 A 
ATOM     15  C   UNL     1      96.250 121.243  88.257  1.00  0.00     0.027 A 
ATOM     16  C   UNL     1      96.419 121.138  86.869  1.00  0.00     0.003 A 
ATOM     17  H   UNL     1      96.706 120.923  91.095  1.00  0.00     0.166 HD
ENDROOT
BRANCH   7  18
ATOM     18  C   UNL     1     100.615 117.080  83.646  1.00  0.00     0.230 C 
ATOM     19  O   UNL     1     100.119 115.948  83.739  1.00  0.00    -0.274 OA
ATOM     20  N   UNL     1     100.796 117.669  82.397  1.00  0.00    -0.343 N 
BRANCH  20  21
ATOM     21  C   UNL     1     100.313 116.924  81.229  1.00  0.00     0.116 C 
ATOM     22  C   UNL     1     101.439 116.626  80.250  1.00  0.00     0.027 C 
ENDBRANCH  20  21
BRANCH  20  23
ATOM     23  C   UNL     1     101.407 118.974  82.123  1.00  0.00     0.116 C 
ATOM     24  C   UNL     1     100.371 120.039  81.793  1.00  0.00     0.027 C 
ENDBRANCH  20  23
ENDBRANCH   7  18
BRANCH   1  25
ATOM     25  C   UNL     1     102.685 118.342  87.453  1.00  0.00     0.085 C 
BRANCH  25  26
ATOM     26  C   UNL     1     104.044 117.775  87.006  1.00  0.00     0.012 C 
ATOM     27  C   UNL     1     105.121 118.842  86.860  1.00  0.00     0.005 C 
ENDBRANCH  25  26
ENDBRANCH   1  25
TORSDOF 5
ENDMDL
MODEL 4
REMARK VINA RESULT:    -7.147      2.341      5.759
REMARK INTER + INTRA:          -8.833
REMARK INTER:                  -8.301
REMARK INTRA:                  -0.533
REMARK UNBOUND:                 0.403
REMARK SMILES CCCN1C[C@H](C(=O)N(CC)CC)C=C2c3cccc4[nH]cc(c34)C[C@H]21
REMARK SMILES IDX 4 1 21 2 26 3 15 4 25 5 5 6 6 7 23 8 16 9 14 10 24 11 20 12
REMARK SMILES IDX 22 13 17 14 19 15 18 16 7 18 8 19 9 20 10 21 11 22 12 23
REMARK SMILES IDX 13 24 3 25 2 26 1 27
REMARK H PARENT 21 17
ROOT
ATOM      1  N   UNL     1     100.809 120.981  79.538  1.00  0.00    -0.295 NA
ATOM      2  N   UNL     1      98.875 120.545  85.249  1.00  0.00    -0.361 N 
ATOM      3  C   UNL     1     100.726 120.675  81.007  1.00  0.00     0.091 C 
ATOM      4  C   UNL     1     100.962 119.168  81.364  1.00  0.00    -0.026 C 
ATOM      5  C   UNL     1      99.486 121.353  81.701  1.00  0.00     0.061 C 
ATOM      6  C   UNL     1     102.018 120.331  78.984  1.00  0.00     0.102 C 
ATOM      7  C   UNL     1     102.024 118.799  79.137  1.00  0.00     0.116 C 
ATOM      8  C   UNL     1      99.358 120.906  83.114  1.00  0.00    -0.020 A 
ATOM      9  C   UNL     1     100.628 118.729  82.743  1.00  0.00    -0.011 A 
ATOM     10  C   UNL     1     101.525 118.322  80.476  1.00  0.00    -0.007 C 
ATOM     11  C   UNL     1      99.896 119.658  83.496  1.00  0.00     0.010 A 
ATOM     12  C   UNL     1      99.570 119.432  84.825  1.00  0.00     0.046 A 
ATOM     13  C   UNL     1      98.735 121.445  84.215  1.00  0.00     0.087 A 
ATOM     14  C   UNL     1     100.997 117.541  83.391  1.00  0.00     0.009 A 
ATOM     15  C   UNL     1      99.938 118.257  85.481  1.00  0.00     0.027 A 
ATOM     16  C   UNL     1     100.654 117.313  84.732  1.00  0.00     0.003 A 
ATOM     17  H   UNL     1      98.505 120.669  86.181  1.00  0.00     0.166 HD
ENDROOT
BRANCH   7  18
ATOM     18  C   UNL     1     103.391 118.223  78.719  1.00  0.00     0.230 C 
ATOM     19  O   UNL     1     104.404 118.854  79.054  1.00  0.00    -0.274 OA
ATOM     20  N   UNL     1     103.507 117.016  78.034  1.00  0.00    -0.343 N 
BRANCH  20  21
ATOM     21  C   UNL     1     104.863 116.507  77.799  1.00  0.00     0.116 C 
ATOM     22  C   UNL     1     104.840 115.124  77.166  1.00  0.00     0.027 C 
ENDBRANCH  20  21
BRANCH  20  23
ATOM     23  C   UNL     1     102.409 116.182  77.534  1.00  0.00     0.116 C 
ATOM     24  C   UNL     1     101.684 115.450  78.655  1.00  0.00     0.027 C 
ENDBRANCH  20  23
ENDBRANCH   7  18
BRANCH   1  25
ATOM     25  C   UNL     1      99.580 120.638  78.797  1.00  0.00     0.085 C 
BRANCH  25  26
ATOM     26  C   UNL     1      99.017 121.740  77.883  1.00  0.00     0.012 C 
ATOM     27  C   UNL     1      98.623 123.003  78.636  1.00  0.00     0.005 C 
ENDBRANCH  25  26
ENDBRANCH   1  25
TORSDOF 5
ENDMDL
MODEL 5
REMARK VINA RESULT:    -6.500      2.794      6.260
REMARK INTER + INTRA:          -7.997
REMARK INTER:                  -7.604
REMARK INTRA:                  -0.393
REMARK UNBOUND:                 0.403
REMARK SMILES CCCN1C[C@H](C(=O)N(CC)CC)C=C2c3cccc4[nH]cc(c34)C[C@H]21
REMARK SMILES IDX 4 1 21 2 26 3 15 4 25 5 5 6 6 7 23 8 16 9 14 10 24 11 20 12
REMARK SMILES IDX 22 13 17 14 19 15 18 16 7 18 8 19 9 20 10 21 11 22 12 23
REMARK SMILES IDX 13 24 3 25 2 26 1 27
REMARK H PARENT 21 17
ROOT
ATOM      1  N   UNL     1     101.076 118.581  82.454  1.00  0.00    -0.295 NA
ATOM      2  N   UNL     1     100.710 121.859  77.388  1.00  0.00    -0.361 N 
ATOM      3  C   UNL     1     100.921 119.723  81.491  1.00  0.00     0.091 C 
ATOM      4  C   UNL     1      99.600 120.545  81.676  1.00  0.00    -0.026 C 
ATOM      5  C   UNL     1     101.272 119.324  80.009  1.00  0.00     0.061 C 
ATOM      6  C   UNL     1     100.758 119.060  83.817  1.00  0.00     0.102 C 
ATOM      7  C   UNL     1      99.323 119.597  83.968  1.00  0.00     0.116 C 
ATOM      8  C   UNL     1     100.964 120.436  79.072  1.00  0.00    -0.020 A 
ATOM      9  C   UNL     1      99.235 121.507  80.606  1.00  0.00    -0.011 A 
ATOM     10  C   UNL     1      98.868 120.441  82.805  1.00  0.00    -0.007 C 
ATOM     11  C   UNL     1      99.981 121.386  79.424  1.00  0.00     0.010 A 
ATOM     12  C   UNL     1      99.814 122.257  78.358  1.00  0.00     0.046 A 
ATOM     13  C   UNL     1     101.410 120.750  77.809  1.00  0.00     0.087 A 
ATOM     14  C   UNL     1      98.287 122.540  80.650  1.00  0.00     0.009 A 
ATOM     15  C   UNL     1      98.879 123.292  78.395  1.00  0.00     0.027 A 
ATOM     16  C   UNL     1      98.114 123.410  79.564  1.00  0.00     0.003 A 
ATOM     17  H   UNL     1     100.819 122.308  76.490  1.00  0.00     0.166 HD
ENDROOT
BRANCH   7  18
ATOM     18  C   UNL     1      99.136 120.254  85.348  1.00  0.00     0.230 C 
ATOM     19  O   UNL     1      98.862 121.462  85.376  1.00  0.00    -0.274 OA
ATOM     20  N   UNL     1      99.221 119.524  86.532  1.00  0.00    -0.343 N 
BRANCH  20  21
ATOM     21  C   UNL     1      98.904 120.230  87.778  1.00  0.00     0.116 C 
ATOM     22  C   UNL     1      97.434 120.089  88.144  1.00  0.00     0.027 C 
ENDBRANCH  20  21
BRANCH  20  23
ATOM     23  C   UNL     1      99.578 118.108  86.665  1.00  0.00     0.116 C 
ATOM     24  C   UNL     1     100.178 117.789  88.027  1.00  0.00     0.027 C 
ENDBRANCH  20  23
ENDBRANCH   7  18
BRANCH   1  25
ATOM     25  C   UNL     1     100.306 117.382  82.070  1.00  0.00     0.085 C 
BRANCH  25  26
ATOM     26  C   UNL     1     100.756 116.060  82.715  1.00  0.00     0.012 C 
ATOM     27  C   UNL     1      99.616 115.070  82.916  1.00  0.00     0.005 C 
ENDBRANCH  25  26
ENDBRANCH   1  25
TORSDOF 5
ENDMDL
MODEL 6
REMARK VINA RESULT:    -6.330      3.094      6.648
REMARK INTER + INTRA:          -7.776
REMARK INTER:                  -8.524
REMARK INTRA:                   0.747
REMARK UNBOUND:                 0.403
REMARK SMILES CCCN1C[C@H](C(=O)N(CC)CC)C=C2c3cccc4[nH]cc(c34)C[C@H]21
REMARK SMILES IDX 4 1 21 2 26 3 15 4 25 5 5 6 6 7 23 8 16 9 14 10 24 11 20 12
REMARK SMILES IDX 22 13 17 14 19 15 18 16 7 18 8 19 9 20 10 21 11 22 12 23
REMARK SMILES IDX 13 24 3 25 2 26 1 27
REMARK H PARENT 21 17
ROOT
ATOM      1  N   UNL     1     100.966 117.189  83.820  1.00  0.00    -0.295 NA
ATOM      2  N   UNL     1     100.850 120.473  78.747  1.00  0.00    -0.361 N 
ATOM      3  C   UNL     1     100.966 118.339  82.854  1.00  0.00     0.091 C 
ATOM      4  C   UNL     1      99.859 119.412  83.133  1.00  0.00    -0.026 C 
ATOM      5  C   UNL     1     101.104 117.877  81.356  1.00  0.00     0.061 C 
ATOM      6  C   UNL     1     100.867 117.723  85.197  1.00  0.00     0.102 C 
ATOM      7  C   UNL     1      99.587 118.541  85.455  1.00  0.00     0.116 C 
ATOM      8  C   UNL     1     100.950 119.028  80.428  1.00  0.00    -0.020 A 
ATOM      9  C   UNL     1      99.608 120.428  82.079  1.00  0.00    -0.011 A 
ATOM     10  C   UNL     1      99.218 119.460  84.319  1.00  0.00    -0.007 C 
ATOM     11  C   UNL     1     100.213 120.158  80.843  1.00  0.00     0.010 A 
ATOM     12  C   UNL     1     100.138 121.045  79.780  1.00  0.00     0.046 A 
ATOM     13  C   UNL     1     101.343 119.245  79.128  1.00  0.00     0.087 A 
ATOM     14  C   UNL     1      98.897 121.633  82.184  1.00  0.00     0.009 A 
ATOM     15  C   UNL     1      99.438 122.249  79.875  1.00  0.00     0.027 A 
ATOM     16  C   UNL     1      98.813 122.520  81.101  1.00  0.00     0.003 A 
ATOM     17  H   UNL     1     100.973 120.891  77.835  1.00  0.00     0.166 HD
ENDROOT
BRANCH   7  18
ATOM     18  C   UNL     1      99.654 119.222  86.835  1.00  0.00     0.230 C 
ATOM     19  O   UNL     1      98.923 120.205  87.025  1.00  0.00    -0.274 OA
ATOM     20  N   UNL     1     100.463 118.737  87.861  1.00  0.00    -0.343 N 
BRANCH  20  21
ATOM     21  C   UNL     1     100.351 119.393  89.168  1.00  0.00     0.116 C 
ATOM     22  C   UNL     1      99.415 118.635  90.098  1.00  0.00     0.027 C 
ENDBRANCH  20  21
BRANCH  20  23
ATOM     23  C   UNL     1     101.409 117.620  87.778  1.00  0.00     0.116 C 
ATOM     24  C   UNL     1     102.857 118.088  87.775  1.00  0.00     0.027 C 
ENDBRANCH  20  23
ENDBRANCH   7  18
BRANCH   1  25
ATOM     25  C   UNL     1      99.940 116.172  83.522  1.00  0.00     0.085 C 
BRANCH  25  26
ATOM     26  C   UNL     1     100.411 114.966  82.691  1.00  0.00     0.012 C 
ATOM     27  C   UNL     1      99.418 114.552  81.614  1.00  0.00     0.005 C 
ENDBRANCH  25  26
ENDBRANCH   1  25
TORSDOF 5
ENDMDL
MODEL 7
REMARK VINA RESULT:    -6.294      2.518      5.868
REMARK INTER + INTRA:          -7.730
REMARK INTER:                  -8.552
REMARK INTRA:                   0.822
REMARK UNBOUND:                 0.403
REMARK SMILES CCCN1C[C@H](C(=O)N(CC)CC)C=C2c3cccc4[nH]cc(c34)C[C@H]21
REMARK SMILES IDX 4 1 21 2 26 3 15 4 25 5 5 6 6 7 23 8 16 9 14 10 24 11 20 12
REMARK SMILES IDX 22 13 17 14 19 15 18 16 7 18 8 19 9 20 10 21 11 22 12 23
REMARK SMILES IDX 13 24 3 25 2 26 1 27
REMARK H PARENT 21 17
ROOT
ATOM      1  N   UNL     1     101.501 120.685  77.973  1.00  0.00    -0.295 NA
ATOM      2  N   UNL     1      98.705 121.467  83.275  1.00  0.00    -0.361 N 
ATOM      3  C   UNL     1     101.197 120.728  79.443  1.00  0.00     0.091 C 
ATOM      4  C   UNL     1     101.427 119.369  80.187  1.00  0.00    -0.026 C 
ATOM      5  C   UNL     1      99.840 121.459  79.764  1.00  0.00     0.061 C 
ATOM      6  C   UNL     1     102.804 120.012  77.775  1.00  0.00     0.102 C 
ATOM      7  C   UNL     1     102.841 118.563  78.296  1.00  0.00     0.116 C 
ATOM      8  C   UNL     1      99.507 121.349  81.209  1.00  0.00    -0.020 A 
ATOM      9  C   UNL     1     100.895 119.244  81.568  1.00  0.00    -0.011 A 
ATOM     10  C   UNL     1     102.153 118.380  79.624  1.00  0.00    -0.007 C 
ATOM     11  C   UNL     1     100.021 120.269  81.959  1.00  0.00     0.010 A 
ATOM     12  C   UNL     1      99.497 120.339  83.241  1.00  0.00     0.046 A 
ATOM     13  C   UNL     1      98.699 122.086  82.044  1.00  0.00     0.087 A 
ATOM     14  C   UNL     1     101.199 118.272  82.533  1.00  0.00     0.009 A 
ATOM     15  C   UNL     1      99.798 119.381  84.210  1.00  0.00     0.027 A 
ATOM     16  C   UNL     1     100.656 118.341  83.825  1.00  0.00     0.003 A 
ATOM     17  H   UNL     1      98.188 121.780  84.085  1.00  0.00     0.166 HD
ENDROOT
BRANCH   7  18
ATOM     18  C   UNL     1     104.275 118.006  78.234  1.00  0.00     0.230 C 
ATOM     19  O   UNL     1     105.202 118.775  78.526  1.00  0.00    -0.274 OA
ATOM     20  N   UNL     1     104.540 116.677  77.911  1.00  0.00    -0.343 N 
BRANCH  20  21
ATOM     21  C   UNL     1     105.934 116.229  78.004  1.00  0.00     0.116 C 
ATOM     22  C   UNL     1     106.321 115.896  79.437  1.00  0.00     0.027 C 
ENDBRANCH  20  21
BRANCH  20  23
ATOM     23  C   UNL     1     103.562 115.663  77.502  1.00  0.00     0.116 C 
ATOM     24  C   UNL     1     102.747 115.140  78.677  1.00  0.00     0.027 C 
ENDBRANCH  20  23
ENDBRANCH   7  18
BRANCH   1  25
ATOM     25  C   UNL     1     100.417 120.089  77.168  1.00  0.00     0.085 C 
BRANCH  25  26
ATOM     26  C   UNL     1      99.661 118.918  77.820  1.00  0.00     0.012 C 
ATOM     27  C   UNL     1      99.954 117.575  77.166  1.00  0.00     0.005 C 
ENDBRANCH  25  26
ENDBRANCH   1  25
TORSDOF 5
ENDMDL
MODEL 8
REMARK VINA RESULT:    -5.370      2.819      6.004
REMARK INTER + INTRA:          -6.537
REMARK INTER:                  -5.823
REMARK INTRA:                  -0.714
REMARK UNBOUND:                 0.403
REMARK SMILES CCCN1C[C@H](C(=O)N(CC)CC)C=C2c3cccc4[nH]cc(c34)C[C@H]21
REMARK SMILES IDX 4 1 21 2 26 3 15 4 25 5 5 6 6 7 23 8 16 9 14 10 24 11 20 12
REMARK SMILES IDX 22 13 17 14 19 15 18 16 7 18 8 19 9 20 10 21 11 22 12 23
REMARK SMILES IDX 13 24 3 25 2 26 1 27
REMARK H PARENT 21 17
ROOT
ATOM      1  N   UNL     1      99.216 121.500  82.454  1.00  0.00    -0.295 NA
ATOM      2  N   UNL     1      98.413 120.072  88.272  1.00  0.00    -0.361 N 
ATOM      3  C   UNL     1      99.430 120.985  83.848  1.00  0.00     0.091 C 
ATOM      4  C   UNL     1      99.845 119.476  83.920  1.00  0.00    -0.026 C 
ATOM      5  C   UNL     1      98.292 121.426  84.842  1.00  0.00     0.061 C 
ATOM      6  C   UNL     1     100.348 121.064  81.606  1.00  0.00     0.102 C 
ATOM      7  C   UNL     1     100.502 119.534  81.514  1.00  0.00     0.116 C 
ATOM      8  C   UNL     1      98.463 120.776  86.169  1.00  0.00    -0.020 A 
ATOM      9  C   UNL     1      99.808 118.817  85.250  1.00  0.00    -0.011 A 
ATOM     10  C   UNL     1     100.298 118.826  82.828  1.00  0.00    -0.007 C 
ATOM     11  C   UNL     1      99.158 119.550  86.254  1.00  0.00     0.010 A 
ATOM     12  C   UNL     1      99.102 119.108  87.567  1.00  0.00     0.046 A 
ATOM     13  C   UNL     1      98.015 121.087  87.431  1.00  0.00     0.087 A 
ATOM     14  C   UNL     1     100.381 117.595  85.632  1.00  0.00     0.009 A 
ATOM     15  C   UNL     1      99.675 117.897  87.959  1.00  0.00     0.027 A 
ATOM     16  C   UNL     1     100.311 117.147  86.959  1.00  0.00     0.003 A 
ATOM     17  H   UNL     1      98.213 120.025  89.262  1.00  0.00     0.166 HD
ENDROOT
BRANCH   7  18
ATOM     18  C   UNL     1     101.808 119.168  80.784  1.00  0.00     0.230 C 
ATOM     19  O   UNL     1     102.876 119.498  81.320  1.00  0.00    -0.274 OA
ATOM     20  N   UNL     1     101.813 118.452  79.589  1.00  0.00    -0.343 N 
BRANCH  20  21
ATOM     21  C   UNL     1     103.118 118.055  79.051  1.00  0.00     0.116 C 
ATOM     22  C   UNL     1     103.606 119.029  77.988  1.00  0.00     0.027 C 
ENDBRANCH  20  21
BRANCH  20  23
ATOM     23  C   UNL     1     100.640 118.031  78.815  1.00  0.00     0.116 C 
ATOM     24  C   UNL     1     100.293 116.567  79.041  1.00  0.00     0.027 C 
ENDBRANCH  20  23
ENDBRANCH   7  18
BRANCH   1  25
ATOM     25  C   UNL     1      97.901 121.137  81.890  1.00  0.00     0.085 C 
BRANCH  25  26
ATOM     26  C   UNL     1      97.122 122.279  81.216  1.00  0.00     0.012 C 
ATOM     27  C   UNL     1      98.020 123.289  80.515  1.00  0.00     0.005 C 
ENDBRANCH  25  26
ENDBRANCH   1  25
TORSDOF 5
ENDMDL
MODEL 9
REMARK VINA RESULT:    -5.348      3.317      5.522
REMARK INTER + INTRA:          -6.507
REMARK INTER:                  -6.301
REMARK INTRA:                  -0.206
REMARK UNBOUND:                 0.403
REMARK SMILES CCCN1C[C@H](C(=O)N(CC)CC)C=C2c3cccc4[nH]cc(c34)C[C@H]21
REMARK SMILES IDX 4 1 21 2 26 3 15 4 25 5 5 6 6 7 23 8 16 9 14 10 24 11 20 12
REMARK SMILES IDX 22 13 17 14 19 15 18 16 7 18 8 19 9 20 10 21 11 22 12 23
REMARK SMILES IDX 13 24 3 25 2 26 1 27
REMARK H PARENT 21 17
ROOT
ATOM      1  N   UNL     1     101.003 119.305  81.578  1.00  0.00    -0.295 NA
ATOM      2  N   UNL     1      99.688 114.438  78.243  1.00  0.00    -0.361 N 
ATOM      3  C   UNL     1     100.377 118.036  81.075  1.00  0.00     0.091 C 
ATOM      4  C   UNL     1     100.376 116.864  82.115  1.00  0.00    -0.026 C 
ATOM      5  C   UNL     1     100.851 117.657  79.622  1.00  0.00     0.061 C 
ATOM      6  C   UNL     1     100.474 119.595  82.930  1.00  0.00     0.102 C 
ATOM      7  C   UNL     1     100.773 118.492  83.963  1.00  0.00     0.116 C 
ATOM      8  C   UNL     1     100.325 116.324  79.223  1.00  0.00    -0.020 A 
ATOM      9  C   UNL     1     100.033 115.507  81.618  1.00  0.00    -0.011 A 
ATOM     10  C   UNL     1     100.596 117.096  83.426  1.00  0.00    -0.007 C 
ATOM     11  C   UNL     1     100.000 115.381  80.222  1.00  0.00     0.010 A 
ATOM     12  C   UNL     1      99.624 114.200  79.600  1.00  0.00     0.046 A 
ATOM     13  C   UNL     1     100.119 115.724  78.003  1.00  0.00     0.087 A 
ATOM     14  C   UNL     1      99.691 114.368  82.363  1.00  0.00     0.009 A 
ATOM     15  C   UNL     1      99.276 113.064  80.331  1.00  0.00     0.027 A 
ATOM     16  C   UNL     1      99.324 113.173  81.728  1.00  0.00     0.003 A 
ATOM     17  H   UNL     1      99.469 113.756  77.530  1.00  0.00     0.166 HD
ENDROOT
BRANCH   7  18
ATOM     18  C   UNL     1     100.025 118.773  85.280  1.00  0.00     0.230 C 
ATOM     19  O   UNL     1      99.051 119.539  85.234  1.00  0.00    -0.274 OA
ATOM     20  N   UNL     1     100.384 118.162  86.479  1.00  0.00    -0.343 N 
BRANCH  20  21
ATOM     21  C   UNL     1      99.523 118.411  87.641  1.00  0.00     0.116 C 
ATOM     22  C   UNL     1     100.072 119.529  88.515  1.00  0.00     0.027 C 
ENDBRANCH  20  21
BRANCH  20  23
ATOM     23  C   UNL     1     101.529 117.273  86.702  1.00  0.00     0.116 C 
ATOM     24  C   UNL     1     102.718 118.005  87.310  1.00  0.00     0.027 C 
ENDBRANCH  20  23
ENDBRANCH   7  18
BRANCH   1  25
ATOM     25  C   UNL     1     102.478 119.291  81.528  1.00  0.00     0.085 C 
BRANCH  25  26
ATOM     26  C   UNL     1     103.116 120.022  80.334  1.00  0.00     0.012 C 
ATOM     27  C   UNL     1     103.936 119.105  79.436  1.00  0.00     0.005 C 
ENDBRANCH  25  26
ENDBRANCH   1  25
TORSDOF 5
ENDMDL
MODEL 10
REMARK VINA RESULT:    -5.316      2.288      3.608
REMARK INTER + INTRA:          -6.466
REMARK INTER:                  -6.680
REMARK INTRA:                   0.214
REMARK UNBOUND:                 0.403
REMARK SMILES CCCN1C[C@H](C(=O)N(CC)CC)C=C2c3cccc4[nH]cc(c34)C[C@H]21
REMARK SMILES IDX 4 1 21 2 26 3 15 4 25 5 5 6 6 7 23 8 16 9 14 10 24 11 20 12
REMARK SMILES IDX 22 13 17 14 19 15 18 16 7 18 8 19 9 20 10 21 11 22 12 23
REMARK SMILES IDX 13 24 3 25 2 26 1 27
REMARK H PARENT 21 17
ROOT
ATOM      1  N   UNL     1     100.596 119.383  81.341  1.00  0.00    -0.295 NA
ATOM      2  N   UNL     1      99.748 117.382  86.982  1.00  0.00    -0.361 N 
ATOM      3  C   UNL     1     100.001 119.107  82.692  1.00  0.00     0.091 C 
ATOM      4  C   UNL     1      99.571 120.391  83.480  1.00  0.00    -0.026 C 
ATOM      5  C   UNL     1     100.823 118.046  83.515  1.00  0.00     0.061 C 
ATOM      6  C   UNL     1      99.739 120.361  80.634  1.00  0.00     0.102 C 
ATOM      7  C   UNL     1      99.605 121.711  81.363  1.00  0.00     0.116 C 
ATOM      8  C   UNL     1     100.287 117.914  84.896  1.00  0.00    -0.020 A 
ATOM      9  C   UNL     1      99.234 120.233  84.918  1.00  0.00    -0.011 A 
ATOM     10  C   UNL     1      99.432 121.579  82.854  1.00  0.00    -0.007 C 
ATOM     11  C   UNL     1      99.587 118.995  85.474  1.00  0.00     0.010 A 
ATOM     12  C   UNL     1      99.274 118.661  86.783  1.00  0.00     0.046 A 
ATOM     13  C   UNL     1     100.371 116.920  85.844  1.00  0.00     0.087 A 
ATOM     14  C   UNL     1      98.568 121.136  85.760  1.00  0.00     0.009 A 
ATOM     15  C   UNL     1      98.606 119.550  87.627  1.00  0.00     0.027 A 
ATOM     16  C   UNL     1      98.266 120.798  87.087  1.00  0.00     0.003 A 
ATOM     17  H   UNL     1      99.667 116.869  87.848  1.00  0.00     0.166 HD
ENDROOT
BRANCH   7  18
ATOM     18  C   UNL     1      98.549 122.593  80.671  1.00  0.00     0.230 C 
ATOM     19  O   UNL     1      97.669 123.098  81.383  1.00  0.00    -0.274 OA
ATOM     20  N   UNL     1      98.592 122.865  79.306  1.00  0.00    -0.343 N 
BRANCH  20  21
ATOM     21  C   UNL     1      97.606 123.816  78.781  1.00  0.00     0.116 C 
ATOM     22  C   UNL     1      96.209 123.215  78.750  1.00  0.00     0.027 C 
ENDBRANCH  20  21
BRANCH  20  23
ATOM     23  C   UNL     1      99.538 122.312  78.331  1.00  0.00     0.116 C 
ATOM     24  C   UNL     1      99.794 123.263  77.171  1.00  0.00     0.027 C 
ENDBRANCH  20  23
ENDBRANCH   7  18
BRANCH   1  25
ATOM     25  C   UNL     1     102.013 119.793  81.397  1.00  0.00     0.085 C 
BRANCH  25  26
ATOM     26  C   UNL     1     102.937 119.159  80.344  1.00  0.00     0.012 C 
ATOM     27  C   UNL     1     102.202 118.717  79.086  1.00  0.00     0.005 C 
ENDBRANCH  25  26
ENDBRANCH   1  25
TORSDOF 5
ENDMDL
MODEL 11
REMARK VINA RESULT:    -5.240      1.537      2.255
REMARK INTER + INTRA:          -6.368
REMARK INTER:                  -7.556
REMARK INTRA:                   1.187
REMARK UNBOUND:                 0.403
REMARK SMILES CCCN1C[C@H](C(=O)N(CC)CC)C=C2c3cccc4[nH]cc(c34)C[C@H]21
REMARK SMILES IDX 4 1 21 2 26 3 15 4 25 5 5 6 6 7 23 8 16 9 14 10 24 11 20 12
REMARK SMILES IDX 22 13 17 14 19 15 18 16 7 18 8 19 9 20 10 21 11 22 12 23
REMARK SMILES IDX 13 24 3 25 2 26 1 27
REMARK H PARENT 21 17
ROOT
ATOM      1  N   UNL     1     100.350 119.898  77.581  1.00  0.00    -0.295 NA
ATOM      2  N   UNL     1     101.399 114.508  80.108  1.00  0.00    -0.361 N 
ATOM      3  C   UNL     1     100.302 118.707  78.494  1.00  0.00     0.091 C 
ATOM      4  C   UNL     1     100.541 119.046  80.005  1.00  0.00    -0.026 C 
ATOM      5  C   UNL     1     101.112 117.477  77.937  1.00  0.00     0.061 C 
ATOM      6  C   UNL     1      99.537 120.985  78.171  1.00  0.00     0.102 C 
ATOM      7  C   UNL     1     100.029 121.446  79.555  1.00  0.00     0.116 C 
ATOM      8  C   UNL     1     101.162 116.377  78.936  1.00  0.00    -0.020 A 
ATOM      9  C   UNL     1     100.784 117.912  80.933  1.00  0.00    -0.011 A 
ATOM     10  C   UNL     1     100.445 120.314  80.458  1.00  0.00    -0.007 C 
ATOM     11  C   UNL     1     101.029 116.681  80.308  1.00  0.00     0.010 A 
ATOM     12  C   UNL     1     101.200 115.511  81.032  1.00  0.00     0.046 A 
ATOM     13  C   UNL     1     101.384 115.023  78.831  1.00  0.00     0.087 A 
ATOM     14  C   UNL     1     100.746 117.912  82.335  1.00  0.00     0.009 A 
ATOM     15  C   UNL     1     101.158 115.498  82.427  1.00  0.00     0.027 A 
ATOM     16  C   UNL     1     100.933 116.728  83.063  1.00  0.00     0.003 A 
ATOM     17  H   UNL     1     101.555 113.537  80.340  1.00  0.00     0.166 HD
ENDROOT
BRANCH   7  18
ATOM     18  C   UNL     1      99.024 122.430  80.182  1.00  0.00     0.230 C 
ATOM     19  O   UNL     1      98.918 122.432  81.417  1.00  0.00    -0.274 OA
ATOM     20  N   UNL     1      98.287 123.327  79.411  1.00  0.00    -0.343 N 
BRANCH  20  21
ATOM     21  C   UNL     1      97.453 124.299  80.128  1.00  0.00     0.116 C 
ATOM     22  C   UNL     1      95.977 124.111  79.812  1.00  0.00     0.027 C 
ENDBRANCH  20  21
BRANCH  20  23
ATOM     23  C   UNL     1      98.270 123.417  77.948  1.00  0.00     0.116 C 
ATOM     24  C   UNL     1      98.949 124.680  77.438  1.00  0.00     0.027 C 
ENDBRANCH  20  23
ENDBRANCH   7  18
BRANCH   1  25
ATOM     25  C   UNL     1     101.722 120.323  77.243  1.00  0.00     0.085 C 
BRANCH  25  26
ATOM     26  C   UNL     1     102.841 119.746  78.127  1.00  0.00     0.012 C 
ATOM     27  C   UNL     1     104.052 119.274  77.333  1.00  0.00     0.005 C 
ENDBRANCH  25  26
ENDBRANCH   1  25
TORSDOF 5
ENDMDL
MODEL 12
REMARK VINA RESULT:    -5.138      2.686      5.723
REMARK INTER + INTRA:          -6.237
REMARK INTER:                  -7.026
REMARK INTRA:                   0.789
REMARK UNBOUND:                 0.403
REMARK SMILES CCCN1C[C@H](C(=O)N(CC)CC)C=C2c3cccc4[nH]cc(c34)C[C@H]21
REMARK SMILES IDX 4 1 21 2 26 3 15 4 25 5 5 6 6 7 23 8 16 9 14 10 24 11 20 12
REMARK SMILES IDX 22 13 17 14 19 15 18 16 7 18 8 19 9 20 10 21 11 22 12 23
REMARK SMILES IDX 13 24 3 25 2 26 1 27
REMARK H PARENT 21 17
ROOT
ATOM      1  N   UNL     1     100.784 119.632  78.647  1.00  0.00    -0.295 NA
ATOM      2  N   UNL     1      99.394 120.638  84.443  1.00  0.00    -0.361 N 
ATOM      3  C   UNL     1     100.808 119.639  80.149  1.00  0.00     0.091 C 
ATOM      4  C   UNL     1     100.868 118.214  80.796  1.00  0.00    -0.026 C 
ATOM      5  C   UNL     1      99.751 120.626  80.771  1.00  0.00     0.061 C 
ATOM      6  C   UNL     1     101.829 118.705  78.158  1.00  0.00     0.102 C 
ATOM      7  C   UNL     1     101.639 117.251  78.628  1.00  0.00     0.116 C 
ATOM      8  C   UNL     1      99.705 120.491  82.251  1.00  0.00    -0.020 A 
ATOM      9  C   UNL     1     100.617 118.113  82.257  1.00  0.00    -0.011 A 
ATOM     10  C   UNL     1     101.216 117.132  80.069  1.00  0.00    -0.007 C 
ATOM     11  C   UNL     1     100.100 119.275  82.848  1.00  0.00     0.010 A 
ATOM     12  C   UNL     1      99.882 119.369  84.214  1.00  0.00     0.046 A 
ATOM     13  C   UNL     1      99.277 121.327  83.256  1.00  0.00     0.087 A 
ATOM     14  C   UNL     1     100.881 117.033  83.113  1.00  0.00     0.009 A 
ATOM     15  C   UNL     1     100.147 118.303  85.075  1.00  0.00     0.027 A 
ATOM     16  C   UNL     1     100.646 117.130  84.492  1.00  0.00     0.003 A 
ATOM     17  H   UNL     1      99.140 121.000  85.352  1.00  0.00     0.166 HD
ENDROOT
BRANCH   7  18
ATOM     18  C   UNL     1     102.863 116.398  78.246  1.00  0.00     0.230 C 
ATOM     19  O   UNL     1     102.708 115.170  78.179  1.00  0.00    -0.274 OA
ATOM     20  N   UNL     1     104.096 116.969  77.936  1.00  0.00    -0.343 N 
BRANCH  20  21
ATOM     21  C   UNL     1     105.153 116.067  77.468  1.00  0.00     0.116 C 
ATOM     22  C   UNL     1     105.984 115.529  78.623  1.00  0.00     0.027 C 
ENDBRANCH  20  21
BRANCH  20  23
ATOM     23  C   UNL     1     104.446 118.392  78.011  1.00  0.00     0.116 C 
ATOM     24  C   UNL     1     104.523 118.893  79.447  1.00  0.00     0.027 C 
ENDBRANCH  20  23
ENDBRANCH   7  18
BRANCH   1  25
ATOM     25  C   UNL     1      99.451 119.347  78.082  1.00  0.00     0.085 C 
BRANCH  25  26
ATOM     26  C   UNL     1      98.862 120.434  77.167  1.00  0.00     0.012 C 
ATOM     27  C   UNL     1      99.364 121.833  77.496  1.00  0.00     0.005 C 
ENDBRANCH  25  26
ENDBRANCH   1  25
TORSDOF 5
ENDMDL
