MODEL 1
REMARK VINA RESULT:    -9.016      0.000      0.000
REMARK INTER + INTRA:         -12.500
REMARK INTER:                 -11.651
REMARK INTRA:                  -0.849
REMARK UNBOUND:                -0.849
REMARK SMILES CCCN1C[C@H](C(=O)N(CC)CC)C=C2c3cccc4[nH]cc(c34)C[C@H]21
REMARK SMILES IDX 4 1 21 2 26 3 15 4 25 5 5 6 6 7 23 8 16 9 14 10 24 11 20 12
REMARK SMILES IDX 22 13 17 14 19 15 18 16 7 18 8 19 9 20 10 21 11 22 12 23
REMARK SMILES IDX 13 24 3 25 2 26 1 27
REMARK H PARENT 21 17
ROOT
ATOM      1  N   UNL     1      92.596 119.503 116.482  1.00  0.00    -0.295 NA
ATOM      2  N   UNL     1      96.255 123.357 113.602  1.00  0.00    -0.361 N 
ATOM      3  C   UNL     1      93.629 120.551 116.185  1.00  0.00     0.091 C 
ATOM      4  C   UNL     1      93.400 121.909 116.934  1.00  0.00    -0.026 C 
ATOM      5  C   UNL     1      93.957 120.668 114.650  1.00  0.00     0.061 C 
ATOM      6  C   UNL     1      92.381 119.446 117.945  1.00  0.00     0.102 C 
ATOM      7  C   UNL     1      91.880 120.770 118.551  1.00  0.00     0.116 C 
ATOM      8  C   UNL     1      94.869 121.813 114.386  1.00  0.00    -0.020 A 
ATOM      9  C   UNL     1      94.203 123.078 116.494  1.00  0.00    -0.011 A 
ATOM     10  C   UNL     1      92.567 121.989 117.992  1.00  0.00    -0.007 C 
ATOM     11  C   UNL     1      94.892 122.900 115.285  1.00  0.00     0.010 A 
ATOM     12  C   UNL     1      95.744 123.869 114.776  1.00  0.00     0.046 A 
ATOM     13  C   UNL     1      95.726 122.110 113.352  1.00  0.00     0.087 A 
ATOM     14  C   UNL     1      94.397 124.300 117.156  1.00  0.00     0.009 A 
ATOM     15  C   UNL     1      95.949 125.084 115.430  1.00  0.00     0.027 A 
ATOM     16  C   UNL     1      95.250 125.280 116.630  1.00  0.00     0.003 A 
ATOM     17  H   UNL     1      96.910 123.841 113.003  1.00  0.00     0.166 HD
ENDROOT
BRANCH   7  18
ATOM     18  C   UNL     1      91.873 120.688 120.090  1.00  0.00     0.230 C 
ATOM     19  O   UNL     1      92.791 120.058 120.634  1.00  0.00    -0.274 OA
ATOM     20  N   UNL     1      90.906 121.330 120.860  1.00  0.00    -0.343 N 
BRANCH  20  21
ATOM     21  C   UNL     1      91.072 121.283 122.317  1.00  0.00     0.116 C 
ATOM     22  C   UNL     1      90.120 120.284 122.957  1.00  0.00     0.027 C 
ENDBRANCH  20  21
BRANCH  20  23
ATOM     23  C   UNL     1      89.741 122.071 120.366  1.00  0.00     0.116 C 
ATOM     24  C   UNL     1      90.007 123.567 120.270  1.00  0.00     0.027 C 
ENDBRANCH  20  23
ENDBRANCH   7  18
BRANCH   1  25
ATOM     25  C   UNL     1      91.343 119.682 115.722  1.00  0.00     0.085 C 
BRANCH  25  26
ATOM     26  C   UNL     1      90.195 118.724 116.084  1.00  0.00     0.012 C 
ATOM     27  C   UNL     1      88.883 119.071 115.394  1.00  0.00     0.005 C 
ENDBRANCH  25  26
ENDBRANCH   1  25
TORSDOF 5
ENDMDL
MODEL 2
REMARK VINA RESULT:    -8.959      0.925      1.224
REMARK INTER + INTRA:         -12.427
REMARK INTER:                 -11.654
REMARK INTRA:                  -0.773
REMARK UNBOUND:                -0.849
REMARK SMILES CCCN1C[C@H](C(=O)N(CC)CC)C=C2c3cccc4[nH]cc(c34)C[C@H]21
REMARK SMILES IDX 4 1 21 2 26 3 15 4 25 5 5 6 6 7 23 8 16 9 14 10 24 11 20 12
REMARK SMILES IDX 22 13 17 14 19 15 18 16 7 18 8 19 9 20 10 21 11 22 12 23
REMARK SMILES IDX 13 24 3 25 2 26 1 27
REMARK H PARENT 21 17
ROOT
ATOM      1  N   UNL     1      92.905 119.679 116.883  1.00  0.00    -0.295 NA
ATOM      2  N   UNL     1      96.423 123.365 113.631  1.00  0.00    -0.361 N 
ATOM      3  C   UNL     1      93.889 120.740 116.482  1.00  0.00     0.091 C 
ATOM      4  C   UNL     1      93.573 122.161 117.062  1.00  0.00    -0.026 C 
ATOM      5  C   UNL     1      94.244 120.695 114.949  1.00  0.00     0.061 C 
ATOM      6  C   UNL     1      92.661 119.781 118.339  1.00  0.00     0.102 C 
ATOM      7  C   UNL     1      92.079 121.138 118.778  1.00  0.00     0.116 C 
ATOM      8  C   UNL     1      95.101 121.849 114.568  1.00  0.00    -0.020 A 
ATOM      9  C   UNL     1      94.324 123.314 116.501  1.00  0.00    -0.011 A 
ATOM     10  C   UNL     1      92.713 122.319 118.090  1.00  0.00    -0.007 C 
ATOM     11  C   UNL     1      95.048 123.034 115.333  1.00  0.00     0.010 A 
ATOM     12  C   UNL     1      95.860 123.981 114.728  1.00  0.00     0.046 A 
ATOM     13  C   UNL     1      95.965 122.070 113.520  1.00  0.00     0.087 A 
ATOM     14  C   UNL     1      94.439 124.612 117.019  1.00  0.00     0.009 A 
ATOM     15  C   UNL     1      95.986 125.274 115.238  1.00  0.00     0.027 A 
ATOM     16  C   UNL     1      95.252 125.570 116.395  1.00  0.00     0.003 A 
ATOM     17  H   UNL     1      97.065 123.810 112.990  1.00  0.00     0.166 HD
ENDROOT
BRANCH   7  18
ATOM     18  C   UNL     1      92.041 121.235 120.315  1.00  0.00     0.230 C 
ATOM     19  O   UNL     1      92.994 121.792 120.877  1.00  0.00    -0.274 OA
ATOM     20  N   UNL     1      90.962 120.763 121.060  1.00  0.00    -0.343 N 
BRANCH  20  21
ATOM     21  C   UNL     1      90.982 121.021 122.504  1.00  0.00     0.116 C 
ATOM     22  C   UNL     1      89.737 121.770 122.956  1.00  0.00     0.027 C 
ENDBRANCH  20  21
BRANCH  20  23
ATOM     23  C   UNL     1      89.789 120.046 120.547  1.00  0.00     0.116 C 
ATOM     24  C   UNL     1      89.782 118.581 120.959  1.00  0.00     0.027 C 
ENDBRANCH  20  23
ENDBRANCH   7  18
BRANCH   1  25
ATOM     25  C   UNL     1      91.662 119.701 116.088  1.00  0.00     0.085 C 
BRANCH  25  26
ATOM     26  C   UNL     1      90.509 118.833 116.620  1.00  0.00     0.012 C 
ATOM     27  C   UNL     1      89.268 118.875 115.738  1.00  0.00     0.005 C 
ENDBRANCH  25  26
ENDBRANCH   1  25
TORSDOF 5
ENDMDL
MODEL 3
REMARK VINA RESULT:    -8.008      3.201      8.146
REMARK INTER + INTRA:         -11.198
REMARK INTER:                 -10.382
REMARK INTRA:                  -0.816
REMARK UNBOUND:                -0.849
REMARK SMILES CCCN1C[C@H](C(=O)N(CC)CC)C=C2c3cccc4[nH]cc(c34)C[C@H]21
REMARK SMILES IDX 4 1 21 2 26 3 15 4 25 5 5 6 6 7 23 8 16 9 14 10 24 11 20 12
REMARK SMILES IDX 22 13 17 14 19 15 18 16 7 18 8 19 9 20 10 21 11 22 12 23
REMARK SMILES IDX 13 24 3 25 2 26 1 27
REMARK H PARENT 21 17
ROOT
ATOM      1  N   UNL     1      89.051 120.758 120.848  1.00  0.00    -0.295 NA
ATOM      2  N   UNL     1      86.590 124.839 124.567  1.00  0.00    -0.361 N 
ATOM      3  C   UNL     1      88.655 122.052 121.500  1.00  0.00     0.091 C 
ATOM      4  C   UNL     1      89.864 122.967 121.898  1.00  0.00    -0.026 C 
ATOM      5  C   UNL     1      87.550 121.865 122.605  1.00  0.00     0.061 C 
ATOM      6  C   UNL     1      90.065 121.039 119.807  1.00  0.00     0.102 C 
ATOM      7  C   UNL     1      91.349 121.693 120.350  1.00  0.00     0.116 C 
ATOM      8  C   UNL     1      87.297 123.142 123.325  1.00  0.00    -0.020 A 
ATOM      9  C   UNL     1      89.585 124.124 122.786  1.00  0.00    -0.011 A 
ATOM     10  C   UNL     1      91.094 122.758 121.384  1.00  0.00    -0.007 C 
ATOM     11  C   UNL     1      88.313 124.119 123.379  1.00  0.00     0.010 A 
ATOM     12  C   UNL     1      87.871 125.165 124.174  1.00  0.00     0.046 A 
ATOM     13  C   UNL     1      86.233 123.608 124.061  1.00  0.00     0.087 A 
ATOM     14  C   UNL     1      90.403 125.230 123.057  1.00  0.00     0.009 A 
ATOM     15  C   UNL     1      88.675 126.273 124.445  1.00  0.00     0.027 A 
ATOM     16  C   UNL     1      89.955 126.279 123.873  1.00  0.00     0.003 A 
ATOM     17  H   UNL     1      86.007 125.414 125.158  1.00  0.00     0.166 HD
ENDROOT
BRANCH   7  18
ATOM     18  C   UNL     1      92.261 122.131 119.189  1.00  0.00     0.230 C 
ATOM     19  O   UNL     1      92.182 123.309 118.811  1.00  0.00    -0.274 OA
ATOM     20  N   UNL     1      93.182 121.265 118.603  1.00  0.00    -0.343 N 
BRANCH  20  21
ATOM     21  C   UNL     1      94.081 121.828 117.590  1.00  0.00     0.116 C 
ATOM     22  C   UNL     1      94.153 120.946 116.353  1.00  0.00     0.027 C 
ENDBRANCH  20  21
BRANCH  20  23
ATOM     23  C   UNL     1      93.362 119.841 118.907  1.00  0.00     0.116 C 
ATOM     24  C   UNL     1      94.498 119.600 119.891  1.00  0.00     0.027 C 
ENDBRANCH  20  23
ENDBRANCH   7  18
BRANCH   1  25
ATOM     25  C   UNL     1      89.485 119.725 121.810  1.00  0.00     0.085 C 
BRANCH  25  26
ATOM     26  C   UNL     1      88.755 118.374 121.719  1.00  0.00     0.012 C 
ATOM     27  C   UNL     1      87.733 118.167 122.828  1.00  0.00     0.005 C 
ENDBRANCH  25  26
ENDBRANCH   1  25
TORSDOF 5
ENDMDL
MODEL 4
REMARK VINA RESULT:    -7.967      3.659      5.496
REMARK INTER + INTRA:         -11.145
REMARK INTER:                 -10.575
REMARK INTRA:                  -0.570
REMARK UNBOUND:                -0.849
REMARK SMILES CCCN1C[C@H](C(=O)N(CC)CC)C=C2c3cccc4[nH]cc(c34)C[C@H]21
REMARK SMILES IDX 4 1 21 2 26 3 15 4 25 5 5 6 6 7 23 8 16 9 14 10 24 11 20 12
REMARK SMILES IDX 22 13 17 14 19 15 18 16 7 18 8 19 9 20 10 21 11 22 12 23
REMARK SMILES IDX 13 24 3 25 2 26 1 27
REMARK H PARENT 21 17
ROOT
ATOM      1  N   UNL     1      89.755 119.809 122.325  1.00  0.00    -0.295 NA
ATOM      2  N   UNL     1      94.865 120.381 119.147  1.00  0.00    -0.361 N 
ATOM      3  C   UNL     1      90.978 120.375 121.664  1.00  0.00     0.091 C 
ATOM      4  C   UNL     1      90.691 121.591 120.717  1.00  0.00    -0.026 C 
ATOM      5  C   UNL     1      91.924 119.263 121.075  1.00  0.00     0.061 C 
ATOM      6  C   UNL     1      88.949 120.923 122.873  1.00  0.00     0.102 C 
ATOM      7  C   UNL     1      88.472 121.927 121.807  1.00  0.00     0.116 C 
ATOM      8  C   UNL     1      93.041 119.870 120.303  1.00  0.00    -0.020 A 
ATOM      9  C   UNL     1      91.787 122.033 119.818  1.00  0.00    -0.011 A 
ATOM     10  C   UNL     1      89.522 122.261 120.779  1.00  0.00    -0.007 C 
ATOM     11  C   UNL     1      92.873 121.150 119.732  1.00  0.00     0.010 A 
ATOM     12  C   UNL     1      94.008 121.450 118.994  1.00  0.00     0.046 A 
ATOM     13  C   UNL     1      94.285 119.412 119.936  1.00  0.00     0.087 A 
ATOM     14  C   UNL     1      91.892 123.233 119.097  1.00  0.00     0.009 A 
ATOM     15  C   UNL     1      94.124 122.643 118.279  1.00  0.00     0.027 A 
ATOM     16  C   UNL     1      93.037 123.526 118.343  1.00  0.00     0.003 A 
ATOM     17  H   UNL     1      95.779 120.313 118.722  1.00  0.00     0.166 HD
ENDROOT
BRANCH   7  18
ATOM     18  C   UNL     1      87.817 123.150 122.476  1.00  0.00     0.230 C 
ATOM     19  O   UNL     1      86.582 123.150 122.585  1.00  0.00    -0.274 OA
ATOM     20  N   UNL     1      88.569 124.204 122.989  1.00  0.00    -0.343 N 
BRANCH  20  21
ATOM     21  C   UNL     1      87.844 125.254 123.713  1.00  0.00     0.116 C 
ATOM     22  C   UNL     1      88.111 125.191 125.209  1.00  0.00     0.027 C 
ENDBRANCH  20  21
BRANCH  20  23
ATOM     23  C   UNL     1      90.024 124.368 122.899  1.00  0.00     0.116 C 
ATOM     24  C   UNL     1      90.422 125.477 121.935  1.00  0.00     0.027 C 
ENDBRANCH  20  23
ENDBRANCH   7  18
BRANCH   1  25
ATOM     25  C   UNL     1      88.977 118.911 121.449  1.00  0.00     0.085 C 
BRANCH  25  26
ATOM     26  C   UNL     1      88.179 117.804 122.160  1.00  0.00     0.012 C 
ATOM     27  C   UNL     1      86.677 118.052 122.162  1.00  0.00     0.005 C 
ENDBRANCH  25  26
ENDBRANCH   1  25
TORSDOF 5
ENDMDL
MODEL 5
REMARK VINA RESULT:    -7.872      2.621      7.251
REMARK INTER + INTRA:         -11.022
REMARK INTER:                 -10.589
REMARK INTRA:                  -0.433
REMARK UNBOUND:                -0.849
REMARK SMILES CCCN1C[C@H](C(=O)N(CC)CC)C=C2c3cccc4[nH]cc(c34)C[C@H]21
REMARK SMILES IDX 4 1 21 2 26 3 15 4 25 5 5 6 6 7 23 8 16 9 14 10 24 11 20 12
REMARK SMILES IDX 22 13 17 14 19 15 18 16 7 18 8 19 9 20 10 21 11 22 12 23
REMARK SMILES IDX 13 24 3 25 2 26 1 27
REMARK H PARENT 21 17
ROOT
ATOM      1  N   UNL     1      92.071 120.706 118.938  1.00  0.00    -0.295 NA
ATOM      2  N   UNL     1      87.597 122.739 122.458  1.00  0.00    -0.361 N 
ATOM      3  C   UNL     1      90.951 121.532 119.503  1.00  0.00     0.091 C 
ATOM      4  C   UNL     1      91.316 123.038 119.732  1.00  0.00    -0.026 C 
ATOM      5  C   UNL     1      90.211 120.821 120.696  1.00  0.00     0.061 C 
ATOM      6  C   UNL     1      92.681 121.439 117.806  1.00  0.00     0.102 C 
ATOM      7  C   UNL     1      93.269 122.808 118.197  1.00  0.00     0.116 C 
ATOM      8  C   UNL     1      89.212 121.730 121.319  1.00  0.00    -0.020 A 
ATOM      9  C   UNL     1      90.373 123.857 120.535  1.00  0.00    -0.011 A 
ATOM     10  C   UNL     1      92.403 123.588 119.152  1.00  0.00    -0.007 C 
ATOM     11  C   UNL     1      89.388 123.126 121.216  1.00  0.00     0.010 A 
ATOM     12  C   UNL     1      88.387 123.747 121.948  1.00  0.00     0.046 A 
ATOM     13  C   UNL     1      88.092 121.508 122.087  1.00  0.00     0.087 A 
ATOM     14  C   UNL     1      90.314 125.254 120.651  1.00  0.00     0.009 A 
ATOM     15  C   UNL     1      88.316 125.136 122.064  1.00  0.00     0.027 A 
ATOM     16  C   UNL     1      89.307 125.876 121.403  1.00  0.00     0.003 A 
ATOM     17  H   UNL     1      86.783 122.886 123.038  1.00  0.00     0.166 HD
ENDROOT
BRANCH   7  18
ATOM     18  C   UNL     1      93.701 123.586 116.940  1.00  0.00     0.230 C 
ATOM     19  O   UNL     1      93.203 123.247 115.857  1.00  0.00    -0.274 OA
ATOM     20  N   UNL     1      94.579 124.666 117.004  1.00  0.00    -0.343 N 
BRANCH  20  21
ATOM     21  C   UNL     1      94.821 125.407 115.761  1.00  0.00     0.116 C 
ATOM     22  C   UNL     1      95.931 124.771 114.937  1.00  0.00     0.027 C 
ENDBRANCH  20  21
BRANCH  20  23
ATOM     23  C   UNL     1      95.279 125.157 118.195  1.00  0.00     0.116 C 
ATOM     24  C   UNL     1      95.846 126.556 117.997  1.00  0.00     0.027 C 
ENDBRANCH  20  23
ENDBRANCH   7  18
BRANCH   1  25
ATOM     25  C   UNL     1      93.059 120.287 119.951  1.00  0.00     0.085 C 
BRANCH  25  26
ATOM     26  C   UNL     1      94.439 119.872 119.412  1.00  0.00     0.012 C 
ATOM     27  C   UNL     1      95.580 120.707 119.976  1.00  0.00     0.005 C 
ENDBRANCH  25  26
ENDBRANCH   1  25
TORSDOF 5
ENDMDL
MODEL 6
REMARK VINA RESULT:    -7.870      3.228      5.738
REMARK INTER + INTRA:         -11.020
REMARK INTER:                 -10.520
REMARK INTRA:                  -0.500
REMARK UNBOUND:                -0.849
REMARK SMILES CCCN1C[C@H](C(=O)N(CC)CC)C=C2c3cccc4[nH]cc(c34)C[C@H]21
REMARK SMILES IDX 4 1 21 2 26 3 15 4 25 5 5 6 6 7 23 8 16 9 14 10 24 11 20 12
REMARK SMILES IDX 22 13 17 14 19 15 18 16 7 18 8 19 9 20 10 21 11 22 12 23
REMARK SMILES IDX 13 24 3 25 2 26 1 27
REMARK H PARENT 21 17
ROOT
ATOM      1  N   UNL     1      90.349 121.759 122.448  1.00  0.00    -0.295 NA
ATOM      2  N   UNL     1      94.735 119.919 118.718  1.00  0.00    -0.361 N 
ATOM      3  C   UNL     1      91.508 121.741 121.493  1.00  0.00     0.091 C 
ATOM      4  C   UNL     1      91.299 122.621 120.213  1.00  0.00    -0.026 C 
ATOM      5  C   UNL     1      92.067 120.292 121.238  1.00  0.00     0.061 C 
ATOM      6  C   UNL     1      89.917 123.160 122.648  1.00  0.00     0.102 C 
ATOM      7  C   UNL     1      89.459 123.859 121.355  1.00  0.00     0.116 C 
ATOM      8  C   UNL     1      93.111 120.303 120.179  1.00  0.00    -0.020 A 
ATOM      9  C   UNL     1      92.264 122.448 119.097  1.00  0.00    -0.011 A 
ATOM     10  C   UNL     1      90.330 123.559 120.163  1.00  0.00    -0.007 C 
ATOM     11  C   UNL     1      93.103 121.330 119.210  1.00  0.00     0.010 A 
ATOM     12  C   UNL     1      94.107 121.070 118.290  1.00  0.00     0.046 A 
ATOM     13  C   UNL     1      94.134 119.441 119.861  1.00  0.00     0.087 A 
ATOM     14  C   UNL     1      92.471 123.283 117.989  1.00  0.00     0.009 A 
ATOM     15  C   UNL     1      94.326 121.897 117.188  1.00  0.00     0.027 A 
ATOM     16  C   UNL     1      93.480 123.007 117.055  1.00  0.00     0.003 A 
ATOM     17  H   UNL     1      95.513 119.481 118.244  1.00  0.00     0.166 HD
ENDROOT
BRANCH   7  18
ATOM     18  C   UNL     1      89.217 125.359 121.612  1.00  0.00     0.230 C 
ATOM     19  O   UNL     1      89.929 126.167 120.998  1.00  0.00    -0.274 OA
ATOM     20  N   UNL     1      88.210 125.812 122.461  1.00  0.00    -0.343 N 
BRANCH  20  21
ATOM     21  C   UNL     1      87.995 127.261 122.532  1.00  0.00     0.116 C 
ATOM     22  C   UNL     1      86.816 127.695 121.673  1.00  0.00     0.027 C 
ENDBRANCH  20  21
BRANCH  20  23
ATOM     23  C   UNL     1      87.321 124.986 123.285  1.00  0.00     0.116 C 
ATOM     24  C   UNL     1      87.592 125.154 124.773  1.00  0.00     0.027 C 
ENDBRANCH  20  23
ENDBRANCH   7  18
BRANCH   1  25
ATOM     25  C   UNL     1      89.244 120.867 122.045  1.00  0.00     0.085 C 
BRANCH  25  26
ATOM     26  C   UNL     1      88.825 119.808 123.079  1.00  0.00     0.012 C 
ATOM     27  C   UNL     1      87.987 118.685 122.482  1.00  0.00     0.005 C 
ENDBRANCH  25  26
ENDBRANCH   1  25
TORSDOF 5
ENDMDL
MODEL 7
REMARK VINA RESULT:    -7.691      2.289      7.432
REMARK INTER + INTRA:         -10.788
REMARK INTER:                 -11.553
REMARK INTRA:                   0.765
REMARK UNBOUND:                -0.849
REMARK SMILES CCCN1C[C@H](C(=O)N(CC)CC)C=C2c3cccc4[nH]cc(c34)C[C@H]21
REMARK SMILES IDX 4 1 21 2 26 3 15 4 25 5 5 6 6 7 23 8 16 9 14 10 24 11 20 12
REMARK SMILES IDX 22 13 17 14 19 15 18 16 7 18 8 19 9 20 10 21 11 22 12 23
REMARK SMILES IDX 13 24 3 25 2 26 1 27
REMARK H PARENT 21 17
ROOT
ATOM      1  N   UNL     1      92.465 119.511 119.169  1.00  0.00    -0.295 NA
ATOM      2  N   UNL     1      87.476 120.074 122.535  1.00  0.00    -0.361 N 
ATOM      3  C   UNL     1      91.119 119.937 119.681  1.00  0.00     0.091 C 
ATOM      4  C   UNL     1      90.956 121.487 119.845  1.00  0.00    -0.026 C 
ATOM      5  C   UNL     1      90.626 119.068 120.897  1.00  0.00     0.061 C 
ATOM      6  C   UNL     1      92.827 120.360 118.012  1.00  0.00     0.102 C 
ATOM      7  C   UNL     1      92.916 121.861 118.346  1.00  0.00     0.116 C 
ATOM      8  C   UNL     1      89.365 119.616 121.465  1.00  0.00    -0.020 A 
ATOM      9  C   UNL     1      89.773 121.976 120.597  1.00  0.00    -0.011 A 
ATOM     10  C   UNL     1      91.814 122.345 119.253  1.00  0.00    -0.007 C 
ATOM     11  C   UNL     1      89.069 120.987 121.299  1.00  0.00     0.010 A 
ATOM     12  C   UNL     1      87.899 121.267 121.989  1.00  0.00     0.046 A 
ATOM     13  C   UNL     1      88.362 119.065 122.228  1.00  0.00     0.087 A 
ATOM     14  C   UNL     1      89.250 123.277 120.647  1.00  0.00     0.009 A 
ATOM     15  C   UNL     1      87.368 122.556 122.039  1.00  0.00     0.027 A 
ATOM     16  C   UNL     1      88.074 123.557 121.357  1.00  0.00     0.003 A 
ATOM     17  H   UNL     1      86.644 119.964 123.098  1.00  0.00     0.166 HD
ENDROOT
BRANCH   7  18
ATOM     18  C   UNL     1      93.098 122.688 117.060  1.00  0.00     0.230 C 
ATOM     19  O   UNL     1      93.146 123.922 117.174  1.00  0.00    -0.274 OA
ATOM     20  N   UNL     1      93.253 122.091 115.811  1.00  0.00    -0.343 N 
BRANCH  20  21
ATOM     21  C   UNL     1      93.543 122.974 114.677  1.00  0.00     0.116 C 
ATOM     22  C   UNL     1      95.023 122.967 114.324  1.00  0.00     0.027 C 
ENDBRANCH  20  21
BRANCH  20  23
ATOM     23  C   UNL     1      93.176 120.657 115.510  1.00  0.00     0.116 C 
ATOM     24  C   UNL     1      92.371 120.374 114.250  1.00  0.00     0.027 C 
ENDBRANCH  20  23
ENDBRANCH   7  18
BRANCH   1  25
ATOM     25  C   UNL     1      93.508 119.485 120.213  1.00  0.00     0.085 C 
BRANCH  25  26
ATOM     26  C   UNL     1      94.947 119.742 119.731  1.00  0.00     0.012 C 
ATOM     27  C   UNL     1      95.552 121.018 120.298  1.00  0.00     0.005 C 
ENDBRANCH  25  26
ENDBRANCH   1  25
TORSDOF 5
ENDMDL
MODEL 8
REMARK VINA RESULT:    -7.599      1.127      1.616
REMARK INTER + INTRA:         -10.669
REMARK INTER:                 -10.197
REMARK INTRA:                  -0.472
REMARK UNBOUND:                -0.849
REMARK SMILES CCCN1C[C@H](C(=O)N(CC)CC)C=C2c3cccc4[nH]cc(c34)C[C@H]21
REMARK SMILES IDX 4 1 21 2 26 3 15 4 25 5 5 6 6 7 23 8 16 9 14 10 24 11 20 12
REMARK SMILES IDX 22 13 17 14 19 15 18 16 7 18 8 19 9 20 10 21 11 22 12 23
REMARK SMILES IDX 13 24 3 25 2 26 1 27
REMARK H PARENT 21 17
ROOT
ATOM      1  N   UNL     1      92.548 119.485 116.186  1.00  0.00    -0.295 NA
ATOM      2  N   UNL     1      96.570 123.309 113.790  1.00  0.00    -0.361 N 
ATOM      3  C   UNL     1      93.602 120.542 116.020  1.00  0.00     0.091 C 
ATOM      4  C   UNL     1      93.239 121.919 116.674  1.00  0.00    -0.026 C 
ATOM      5  C   UNL     1      94.169 120.614 114.553  1.00  0.00     0.061 C 
ATOM      6  C   UNL     1      92.103 119.472 117.597  1.00  0.00     0.102 C 
ATOM      7  C   UNL     1      91.496 120.806 118.069  1.00  0.00     0.116 C 
ATOM      8  C   UNL     1      95.096 121.766 114.397  1.00  0.00    -0.020 A 
ATOM      9  C   UNL     1      94.087 123.088 116.327  1.00  0.00    -0.011 A 
ATOM     10  C   UNL     1      92.246 122.018 117.583  1.00  0.00    -0.007 C 
ATOM     11  C   UNL     1      94.962 122.883 115.250  1.00  0.00     0.010 A 
ATOM     12  C   UNL     1      95.872 123.849 114.849  1.00  0.00     0.046 A 
ATOM     13  C   UNL     1      96.103 122.045 113.503  1.00  0.00     0.087 A 
ATOM     14  C   UNL     1      94.157 124.334 116.968  1.00  0.00     0.009 A 
ATOM     15  C   UNL     1      95.953 125.089 115.484  1.00  0.00     0.027 A 
ATOM     16  C   UNL     1      95.070 125.312 116.550  1.00  0.00     0.003 A 
ATOM     17  H   UNL     1      97.306 123.784 113.286  1.00  0.00     0.166 HD
ENDROOT
BRANCH   7  18
ATOM     18  C   UNL     1      91.244 120.774 119.588  1.00  0.00     0.230 C 
ATOM     19  O   UNL     1      90.097 120.503 119.974  1.00  0.00    -0.274 OA
ATOM     20  N   UNL     1      92.264 120.991 120.513  1.00  0.00    -0.343 N 
BRANCH  20  21
ATOM     21  C   UNL     1      91.932 120.815 121.930  1.00  0.00     0.116 C 
ATOM     22  C   UNL     1      91.544 122.133 122.584  1.00  0.00     0.027 C 
ENDBRANCH  20  21
BRANCH  20  23
ATOM     23  C   UNL     1      93.651 121.363 120.215  1.00  0.00     0.116 C 
ATOM     24  C   UNL     1      94.537 120.148 119.980  1.00  0.00     0.027 C 
ENDBRANCH  20  23
ENDBRANCH   7  18
BRANCH   1  25
ATOM     25  C   UNL     1      91.431 119.616 115.231  1.00  0.00     0.085 C 
BRANCH  25  26
ATOM     26  C   UNL     1      90.259 118.640 115.430  1.00  0.00     0.012 C 
ATOM     27  C   UNL     1      88.895 119.312 115.344  1.00  0.00     0.005 C 
ENDBRANCH  25  26
ENDBRANCH   1  25
TORSDOF 5
ENDMDL
MODEL 9
REMARK VINA RESULT:    -7.508      1.326      1.699
REMARK INTER + INTRA:         -10.552
REMARK INTER:                 -11.131
REMARK INTRA:                   0.579
REMARK UNBOUND:                -0.849
REMARK SMILES CCCN1C[C@H](C(=O)N(CC)CC)C=C2c3cccc4[nH]cc(c34)C[C@H]21
REMARK SMILES IDX 4 1 21 2 26 3 15 4 25 5 5 6 6 7 23 8 16 9 14 10 24 11 20 12
REMARK SMILES IDX 22 13 17 14 19 15 18 16 7 18 8 19 9 20 10 21 11 22 12 23
REMARK SMILES IDX 13 24 3 25 2 26 1 27
REMARK H PARENT 21 17
ROOT
ATOM      1  N   UNL     1      93.430 119.967 115.809  1.00  0.00    -0.295 NA
ATOM      2  N   UNL     1      96.639 124.905 114.446  1.00  0.00    -0.361 N 
ATOM      3  C   UNL     1      94.314 121.177 115.907  1.00  0.00     0.091 C 
ATOM      4  C   UNL     1      93.852 122.226 116.976  1.00  0.00    -0.026 C 
ATOM      5  C   UNL     1      94.702 121.765 114.500  1.00  0.00     0.061 C 
ATOM      6  C   UNL     1      93.148 119.470 117.174  1.00  0.00     0.102 C 
ATOM      7  C   UNL     1      92.430 120.494 118.073  1.00  0.00     0.116 C 
ATOM      8  C   UNL     1      95.451 123.042 114.645  1.00  0.00    -0.020 A 
ATOM      9  C   UNL     1      94.499 123.563 116.949  1.00  0.00    -0.011 A 
ATOM     10  C   UNL     1      92.961 121.898 117.934  1.00  0.00    -0.007 C 
ATOM     11  C   UNL     1      95.269 123.823 115.807  1.00  0.00     0.010 A 
ATOM     12  C   UNL     1      95.998 124.994 115.663  1.00  0.00     0.046 A 
ATOM     13  C   UNL     1      96.310 123.725 113.816  1.00  0.00     0.087 A 
ATOM     14  C   UNL     1      94.478 124.559 117.937  1.00  0.00     0.009 A 
ATOM     15  C   UNL     1      95.989 125.988 116.642  1.00  0.00     0.027 A 
ATOM     16  C   UNL     1      95.207 125.747 117.780  1.00  0.00     0.003 A 
ATOM     17  H   UNL     1      97.247 125.616 114.065  1.00  0.00     0.166 HD
ENDROOT
BRANCH   7  18
ATOM     18  C   UNL     1      92.353 119.977 119.522  1.00  0.00     0.230 C 
ATOM     19  O   UNL     1      93.325 119.341 119.955  1.00  0.00    -0.274 OA
ATOM     20  N   UNL     1      91.263 120.245 120.346  1.00  0.00    -0.343 N 
BRANCH  20  21
ATOM     21  C   UNL     1      91.355 119.807 121.743  1.00  0.00     0.116 C 
ATOM     22  C   UNL     1      89.996 119.818 122.425  1.00  0.00     0.027 C 
ENDBRANCH  20  21
BRANCH  20  23
ATOM     23  C   UNL     1      90.028 120.942 119.968  1.00  0.00     0.116 C 
ATOM     24  C   UNL     1      90.109 122.440 120.224  1.00  0.00     0.027 C 
ENDBRANCH  20  23
ENDBRANCH   7  18
BRANCH   1  25
ATOM     25  C   UNL     1      92.206 120.199 115.017  1.00  0.00     0.085 C 
BRANCH  25  26
ATOM     26  C   UNL     1      92.413 120.832 113.631  1.00  0.00     0.012 C 
ATOM     27  C   UNL     1      92.995 119.865 112.608  1.00  0.00     0.005 C 
ENDBRANCH  25  26
ENDBRANCH   1  25
TORSDOF 5
ENDMDL
MODEL 10
REMARK VINA RESULT:    -7.441      2.289      6.959
REMARK INTER + INTRA:         -10.466
REMARK INTER:                 -10.580
REMARK INTRA:                   0.115
REMARK UNBOUND:                -0.849
REMARK SMILES CCCN1C[C@H](C(=O)N(CC)CC)C=C2c3cccc4[nH]cc(c34)C[C@H]21
REMARK SMILES IDX 4 1 21 2 26 3 15 4 25 5 5 6 6 7 23 8 16 9 14 10 24 11 20 12
REMARK SMILES IDX 22 13 17 14 19 15 18 16 7 18 8 19 9 20 10 21 11 22 12 23
REMARK SMILES IDX 13 24 3 25 2 26 1 27
REMARK H PARENT 21 17
ROOT
ATOM      1  N   UNL     1      92.999 120.410 116.916  1.00  0.00    -0.295 NA
ATOM      2  N   UNL     1      89.461 120.913 121.792  1.00  0.00    -0.361 N 
ATOM      3  C   UNL     1      92.000 120.911 117.920  1.00  0.00     0.091 C 
ATOM      4  C   UNL     1      92.276 122.367 118.429  1.00  0.00    -0.026 C 
ATOM      5  C   UNL     1      91.672 119.850 119.036  1.00  0.00     0.061 C 
ATOM      6  C   UNL     1      93.216 121.458 115.895  1.00  0.00     0.102 C 
ATOM      7  C   UNL     1      93.761 122.780 116.467  1.00  0.00     0.116 C 
ATOM      8  C   UNL     1      90.798 120.437 120.086  1.00  0.00    -0.020 A 
ATOM      9  C   UNL     1      91.511 122.836 119.612  1.00  0.00    -0.011 A 
ATOM     10  C   UNL     1      93.115 123.190 117.765  1.00  0.00    -0.007 C 
ATOM     11  C   UNL     1      90.813 121.832 120.300  1.00  0.00     0.010 A 
ATOM     12  C   UNL     1      89.993 122.117 121.380  1.00  0.00     0.046 A 
ATOM     13  C   UNL     1      89.948 119.884 121.016  1.00  0.00     0.087 A 
ATOM     14  C   UNL     1      91.360 124.147 120.087  1.00  0.00     0.009 A 
ATOM     15  C   UNL     1      89.830 123.418 121.856  1.00  0.00     0.027 A 
ATOM     16  C   UNL     1      90.538 124.427 121.188  1.00  0.00     0.003 A 
ATOM     17  H   UNL     1      88.821 120.803 122.566  1.00  0.00     0.166 HD
ENDROOT
BRANCH   7  18
ATOM     18  C   UNL     1      93.771 123.873 115.382  1.00  0.00     0.230 C 
ATOM     19  O   UNL     1      92.677 124.330 115.020  1.00  0.00    -0.274 OA
ATOM     20  N   UNL     1      94.955 124.377 114.849  1.00  0.00    -0.343 N 
BRANCH  20  21
ATOM     21  C   UNL     1      94.844 125.501 113.913  1.00  0.00     0.116 C 
ATOM     22  C   UNL     1      94.971 126.839 114.626  1.00  0.00     0.027 C 
ENDBRANCH  20  21
BRANCH  20  23
ATOM     23  C   UNL     1      96.315 123.912 115.141  1.00  0.00     0.116 C 
ATOM     24  C   UNL     1      97.038 123.421 113.895  1.00  0.00     0.027 C 
ENDBRANCH  20  23
ENDBRANCH   7  18
BRANCH   1  25
ATOM     25  C   UNL     1      94.254 119.932 117.527  1.00  0.00     0.085 C 
BRANCH  25  26
ATOM     26  C   UNL     1      94.259 119.831 119.062  1.00  0.00     0.012 C 
ATOM     27  C   UNL     1      95.265 120.763 119.723  1.00  0.00     0.005 C 
ENDBRANCH  25  26
ENDBRANCH   1  25
TORSDOF 5
ENDMDL
MODEL 11
REMARK VINA RESULT:    -7.430      3.154      7.515
REMARK INTER + INTRA:         -10.451
REMARK INTER:                  -9.751
REMARK INTRA:                  -0.700
REMARK UNBOUND:                -0.849
REMARK SMILES CCCN1C[C@H](C(=O)N(CC)CC)C=C2c3cccc4[nH]cc(c34)C[C@H]21
REMARK SMILES IDX 4 1 21 2 26 3 15 4 25 5 5 6 6 7 23 8 16 9 14 10 24 11 20 12
REMARK SMILES IDX 22 13 17 14 19 15 18 16 7 18 8 19 9 20 10 21 11 22 12 23
REMARK SMILES IDX 13 24 3 25 2 26 1 27
REMARK H PARENT 21 17
ROOT
ATOM      1  N   UNL     1      89.157 119.586 121.004  1.00  0.00    -0.295 NA
ATOM      2  N   UNL     1      87.043 124.772 123.280  1.00  0.00    -0.361 N 
ATOM      3  C   UNL     1      88.961 121.042 121.320  1.00  0.00     0.091 C 
ATOM      4  C   UNL     1      90.245 121.761 121.857  1.00  0.00    -0.026 C 
ATOM      5  C   UNL     1      87.638 121.319 122.126  1.00  0.00     0.061 C 
ATOM      6  C   UNL     1      90.403 119.431 120.220  1.00  0.00     0.102 C 
ATOM      7  C   UNL     1      91.665 119.917 120.958  1.00  0.00     0.116 C 
ATOM      8  C   UNL     1      87.559 122.744 122.544  1.00  0.00    -0.020 A 
ATOM      9  C   UNL     1      90.077 123.112 122.450  1.00  0.00    -0.011 A 
ATOM     10  C   UNL     1      91.467 121.207 121.711  1.00  0.00    -0.007 C 
ATOM     11  C   UNL     1      88.749 123.488 122.696  1.00  0.00     0.010 A 
ATOM     12  C   UNL     1      88.418 124.746 123.176  1.00  0.00     0.046 A 
ATOM     13  C   UNL     1      86.511 123.559 122.904  1.00  0.00     0.087 A 
ATOM     14  C   UNL     1      91.066 124.065 122.738  1.00  0.00     0.009 A 
ATOM     15  C   UNL     1      89.393 125.703 123.460  1.00  0.00     0.027 A 
ATOM     16  C   UNL     1      90.726 125.331 123.235  1.00  0.00     0.003 A 
ATOM     17  H   UNL     1      86.508 125.565 123.606  1.00  0.00     0.166 HD
ENDROOT
BRANCH   7  18
ATOM     18  C   UNL     1      92.878 119.907 120.010  1.00  0.00     0.230 C 
ATOM     19  O   UNL     1      93.774 119.080 120.234  1.00  0.00    -0.274 OA
ATOM     20  N   UNL     1      92.963 120.754 118.907  1.00  0.00    -0.343 N 
BRANCH  20  21
ATOM     21  C   UNL     1      94.106 120.569 118.006  1.00  0.00     0.116 C 
ATOM     22  C   UNL     1      93.708 119.827 116.740  1.00  0.00     0.027 C 
ENDBRANCH  20  21
BRANCH  20  23
ATOM     23  C   UNL     1      92.012 121.807 118.536  1.00  0.00     0.116 C 
ATOM     24  C   UNL     1      92.607 123.200 118.683  1.00  0.00     0.027 C 
ENDBRANCH  20  23
ENDBRANCH   7  18
BRANCH   1  25
ATOM     25  C   UNL     1      89.114 118.717 122.196  1.00  0.00     0.085 C 
BRANCH  25  26
ATOM     26  C   UNL     1      88.156 117.517 122.118  1.00  0.00     0.012 C 
ATOM     27  C   UNL     1      86.843 117.746 122.854  1.00  0.00     0.005 C 
ENDBRANCH  25  26
ENDBRANCH   1  25
TORSDOF 5
ENDMDL
MODEL 12
REMARK VINA RESULT:    -7.406      2.276      4.763
REMARK INTER + INTRA:         -10.420
REMARK INTER:                 -10.122
REMARK INTRA:                  -0.298
REMARK UNBOUND:                -0.849
REMARK SMILES CCCN1C[C@H](C(=O)N(CC)CC)C=C2c3cccc4[nH]cc(c34)C[C@H]21
REMARK SMILES IDX 4 1 21 2 26 3 15 4 25 5 5 6 6 7 23 8 16 9 14 10 24 11 20 12
REMARK SMILES IDX 22 13 17 14 19 15 18 16 7 18 8 19 9 20 10 21 11 22 12 23
REMARK SMILES IDX 13 24 3 25 2 26 1 27
REMARK H PARENT 21 17
ROOT
ATOM      1  N   UNL     1      90.728 122.565 120.537  1.00  0.00    -0.295 NA
ATOM      2  N   UNL     1      94.159 123.144 115.594  1.00  0.00    -0.361 N 
ATOM      3  C   UNL     1      91.361 122.338 119.194  1.00  0.00     0.091 C 
ATOM      4  C   UNL     1      91.994 120.916 119.013  1.00  0.00    -0.026 C 
ATOM      5  C   UNL     1      92.257 123.546 118.730  1.00  0.00     0.061 C 
ATOM      6  C   UNL     1      89.883 121.396 120.870  1.00  0.00     0.102 C 
ATOM      7  C   UNL     1      90.661 120.069 120.945  1.00  0.00     0.116 C 
ATOM      8  C   UNL     1      92.979 123.220 117.471  1.00  0.00    -0.020 A 
ATOM      9  C   UNL     1      92.873 120.701 117.836  1.00  0.00    -0.011 A 
ATOM     10  C   UNL     1      91.684 119.904 119.851  1.00  0.00    -0.007 C 
ATOM     11  C   UNL     1      93.245 121.870 117.156  1.00  0.00     0.010 A 
ATOM     12  C   UNL     1      94.000 121.834 115.993  1.00  0.00     0.046 A 
ATOM     13  C   UNL     1      93.547 123.995 116.488  1.00  0.00     0.087 A 
ATOM     14  C   UNL     1      93.325 119.487 117.298  1.00  0.00     0.009 A 
ATOM     15  C   UNL     1      94.449 120.631 115.446  1.00  0.00     0.027 A 
ATOM     16  C   UNL     1      94.099 119.458 116.129  1.00  0.00     0.003 A 
ATOM     17  H   UNL     1      94.670 123.435 114.772  1.00  0.00     0.166 HD
ENDROOT
BRANCH   7  18
ATOM     18  C   UNL     1      89.688 118.884 121.097  1.00  0.00     0.230 C 
ATOM     19  O   UNL     1      89.819 117.932 120.315  1.00  0.00    -0.274 OA
ATOM     20  N   UNL     1      88.722 118.844 122.100  1.00  0.00    -0.343 N 
BRANCH  20  21
ATOM     21  C   UNL     1      87.935 117.612 122.223  1.00  0.00     0.116 C 
ATOM     22  C   UNL     1      86.442 117.892 122.157  1.00  0.00     0.027 C 
ENDBRANCH  20  21
BRANCH  20  23
ATOM     23  C   UNL     1      88.417 119.904 123.066  1.00  0.00     0.116 C 
ATOM     24  C   UNL     1      89.414 119.943 124.216  1.00  0.00     0.027 C 
ENDBRANCH  20  23
ENDBRANCH   7  18
BRANCH   1  25
ATOM     25  C   UNL     1      91.702 122.892 121.596  1.00  0.00     0.085 C 
BRANCH  25  26
ATOM     26  C   UNL     1      91.146 123.663 122.805  1.00  0.00     0.012 C 
ATOM     27  C   UNL     1      90.598 125.036 122.442  1.00  0.00     0.005 C 
ENDBRANCH  25  26
ENDBRANCH   1  25
TORSDOF 5
ENDMDL
MODEL 13
REMARK VINA RESULT:    -7.335      2.145      6.699
REMARK INTER + INTRA:         -10.328
REMARK INTER:                 -10.052
REMARK INTRA:                  -0.277
REMARK UNBOUND:                -0.849
REMARK SMILES CCCN1C[C@H](C(=O)N(CC)CC)C=C2c3cccc4[nH]cc(c34)C[C@H]21
REMARK SMILES IDX 4 1 21 2 26 3 15 4 25 5 5 6 6 7 23 8 16 9 14 10 24 11 20 12
REMARK SMILES IDX 22 13 17 14 19 15 18 16 7 18 8 19 9 20 10 21 11 22 12 23
REMARK SMILES IDX 13 24 3 25 2 26 1 27
REMARK H PARENT 21 17
ROOT
ATOM      1  N   UNL     1      93.310 121.465 114.949  1.00  0.00    -0.295 NA
ATOM      2  N   UNL     1      90.152 118.753 119.332  1.00  0.00    -0.361 N 
ATOM      3  C   UNL     1      92.489 121.212 116.181  1.00  0.00     0.091 C 
ATOM      4  C   UNL     1      93.113 121.788 117.498  1.00  0.00    -0.026 C 
ATOM      5  C   UNL     1      91.962 119.731 116.269  1.00  0.00     0.061 C 
ATOM      6  C   UNL     1      93.731 122.884 114.939  1.00  0.00     0.102 C 
ATOM      7  C   UNL     1      94.587 123.286 116.154  1.00  0.00     0.116 C 
ATOM      8  C   UNL     1      91.284 119.485 117.570  1.00  0.00    -0.020 A 
ATOM      9  C   UNL     1      92.519 121.351 118.787  1.00  0.00    -0.011 A 
ATOM     10  C   UNL     1      94.098 122.710 117.457  1.00  0.00    -0.007 C 
ATOM     11  C   UNL     1      91.630 120.270 118.690  1.00  0.00     0.010 A 
ATOM     12  C   UNL     1      90.934 119.791 119.790  1.00  0.00     0.046 A 
ATOM     13  C   UNL     1      90.360 118.554 117.985  1.00  0.00     0.087 A 
ATOM     14  C   UNL     1      92.692 121.913 120.060  1.00  0.00     0.009 A 
ATOM     15  C   UNL     1      91.095 120.347 121.060  1.00  0.00     0.027 A 
ATOM     16  C   UNL     1      91.996 121.416 121.171  1.00  0.00     0.003 A 
ATOM     17  H   UNL     1      89.531 118.205 119.910  1.00  0.00     0.166 HD
ENDROOT
BRANCH   7  18
ATOM     18  C   UNL     1      94.814 124.810 116.171  1.00  0.00     0.230 C 
ATOM     19  O   UNL     1      94.536 125.419 117.214  1.00  0.00    -0.274 OA
ATOM     20  N   UNL     1      95.356 125.490 115.082  1.00  0.00    -0.343 N 
BRANCH  20  21
ATOM     21  C   UNL     1      95.640 126.918 115.258  1.00  0.00     0.116 C 
ATOM     22  C   UNL     1      94.594 127.786 114.574  1.00  0.00     0.027 C 
ENDBRANCH  20  21
BRANCH  20  23
ATOM     23  C   UNL     1      95.693 124.920 113.773  1.00  0.00     0.116 C 
ATOM     24  C   UNL     1      96.967 124.089 113.815  1.00  0.00     0.027 C 
ENDBRANCH  20  23
ENDBRANCH   7  18
BRANCH   1  25
ATOM     25  C   UNL     1      94.440 120.528 114.795  1.00  0.00     0.085 C 
BRANCH  25  26
ATOM     26  C   UNL     1      95.395 120.815 113.623  1.00  0.00     0.012 C 
ATOM     27  C   UNL     1      94.784 120.513 112.262  1.00  0.00     0.005 C 
ENDBRANCH  25  26
ENDBRANCH   1  25
TORSDOF 5
ENDMDL
MODEL 14
REMARK VINA RESULT:    -7.087      4.298      9.124
REMARK INTER + INTRA:         -10.008
REMARK INTER:                  -8.987
REMARK INTRA:                  -1.021
REMARK UNBOUND:                -0.849
REMARK SMILES CCCN1C[C@H](C(=O)N(CC)CC)C=C2c3cccc4[nH]cc(c34)C[C@H]21
REMARK SMILES IDX 4 1 21 2 26 3 15 4 25 5 5 6 6 7 23 8 16 9 14 10 24 11 20 12
REMARK SMILES IDX 22 13 17 14 19 15 18 16 7 18 8 19 9 20 10 21 11 22 12 23
REMARK SMILES IDX 13 24 3 25 2 26 1 27
REMARK H PARENT 21 17
ROOT
ATOM      1  N   UNL     1      87.636 122.661 122.339  1.00  0.00    -0.295 NA
ATOM      2  N   UNL     1      86.599 127.776 125.389  1.00  0.00    -0.361 N 
ATOM      3  C   UNL     1      87.657 124.094 122.788  1.00  0.00     0.091 C 
ATOM      4  C   UNL     1      89.092 124.662 123.057  1.00  0.00    -0.026 C 
ATOM      5  C   UNL     1      86.584 124.401 123.899  1.00  0.00     0.061 C 
ATOM      6  C   UNL     1      88.650 122.480 121.276  1.00  0.00     0.102 C 
ATOM      7  C   UNL     1      90.087 122.800 121.729  1.00  0.00     0.116 C 
ATOM      8  C   UNL     1      86.738 125.786 124.418  1.00  0.00    -0.020 A 
ATOM      9  C   UNL     1      89.193 125.966 123.761  1.00  0.00    -0.011 A 
ATOM     10  C   UNL     1      90.190 124.031 122.592  1.00  0.00    -0.007 C 
ATOM     11  C   UNL     1      87.997 126.420 124.337  1.00  0.00     0.010 A 
ATOM     12  C   UNL     1      87.905 127.653 124.964  1.00  0.00     0.046 A 
ATOM     13  C   UNL     1      85.882 126.645 125.067  1.00  0.00     0.087 A 
ATOM     14  C   UNL     1      90.307 126.811 123.873  1.00  0.00     0.009 A 
ATOM     15  C   UNL     1      89.006 128.503 125.075  1.00  0.00     0.027 A 
ATOM     16  C   UNL     1      90.212 128.051 124.521  1.00  0.00     0.003 A 
ATOM     17  H   UNL     1      86.230 128.576 125.883  1.00  0.00     0.166 HD
ENDROOT
BRANCH   7  18
ATOM     18  C   UNL     1      91.047 122.779 120.524  1.00  0.00     0.230 C 
ATOM     19  O   UNL     1      91.261 123.853 119.944  1.00  0.00    -0.274 OA
ATOM     20  N   UNL     1      91.697 121.617 120.115  1.00  0.00    -0.343 N 
BRANCH  20  21
ATOM     21  C   UNL     1      92.681 121.744 119.034  1.00  0.00     0.116 C 
ATOM     22  C   UNL     1      94.105 121.636 119.557  1.00  0.00     0.027 C 
ENDBRANCH  20  21
BRANCH  20  23
ATOM     23  C   UNL     1      91.515 120.270 120.668  1.00  0.00     0.116 C 
ATOM     24  C   UNL     1      90.427 119.491 119.944  1.00  0.00     0.027 C 
ENDBRANCH  20  23
ENDBRANCH   7  18
BRANCH   1  25
ATOM     25  C   UNL     1      87.783 121.697 123.446  1.00  0.00     0.085 C 
BRANCH  25  26
ATOM     26  C   UNL     1      88.055 120.240 123.036  1.00  0.00     0.012 C 
ATOM     27  C   UNL     1      89.319 119.665 123.660  1.00  0.00     0.005 C 
ENDBRANCH  25  26
ENDBRANCH   1  25
TORSDOF 5
ENDMDL
MODEL 15
REMARK VINA RESULT:    -7.041      1.671      4.605
REMARK INTER + INTRA:          -9.948
REMARK INTER:                  -9.704
REMARK INTRA:                  -0.244
REMARK UNBOUND:                -0.849
REMARK SMILES CCCN1C[C@H](C(=O)N(CC)CC)C=C2c3cccc4[nH]cc(c34)C[C@H]21
REMARK SMILES IDX 4 1 21 2 26 3 15 4 25 5 5 6 6 7 23 8 16 9 14 10 24 11 20 12
REMARK SMILES IDX 22 13 17 14 19 15 18 16 7 18 8 19 9 20 10 21 11 22 12 23
REMARK SMILES IDX 13 24 3 25 2 26 1 27
REMARK H PARENT 21 17
ROOT
ATOM      1  N   UNL     1      92.390 122.491 118.900  1.00  0.00    -0.295 NA
ATOM      2  N   UNL     1      96.088 125.866 115.513  1.00  0.00    -0.361 N 
ATOM      3  C   UNL     1      93.098 123.114 117.731  1.00  0.00     0.091 C 
ATOM      4  C   UNL     1      93.746 122.080 116.748  1.00  0.00    -0.026 C 
ATOM      5  C   UNL     1      94.013 124.325 118.146  1.00  0.00     0.061 C 
ATOM      6  C   UNL     1      91.533 121.389 118.408  1.00  0.00     0.102 C 
ATOM      7  C   UNL     1      92.311 120.270 117.691  1.00  0.00     0.116 C 
ATOM      8  C   UNL     1      94.806 124.814 116.987  1.00  0.00    -0.020 A 
ATOM      9  C   UNL     1      94.690 122.603 115.727  1.00  0.00    -0.011 A 
ATOM     10  C   UNL     1      93.395 120.777 116.775  1.00  0.00    -0.007 C 
ATOM     11  C   UNL     1      95.094 123.932 115.923  1.00  0.00     0.010 A 
ATOM     12  C   UNL     1      95.913 124.591 115.019  1.00  0.00     0.046 A 
ATOM     13  C   UNL     1      95.424 126.012 116.711  1.00  0.00     0.087 A 
ATOM     14  C   UNL     1      95.177 121.958 114.580  1.00  0.00     0.009 A 
ATOM     15  C   UNL     1      96.397 123.961 113.872  1.00  0.00     0.027 A 
ATOM     16  C   UNL     1      96.015 122.626 113.676  1.00  0.00     0.003 A 
ATOM     17  H   UNL     1      96.643 126.583 115.066  1.00  0.00     0.166 HD
ENDROOT
BRANCH   7  18
ATOM     18  C   UNL     1      91.337 119.270 117.041  1.00  0.00     0.230 C 
ATOM     19  O   UNL     1      90.950 118.316 117.731  1.00  0.00    -0.274 OA
ATOM     20  N   UNL     1      90.859 119.440 115.743  1.00  0.00    -0.343 N 
BRANCH  20  21
ATOM     21  C   UNL     1      89.842 118.493 115.275  1.00  0.00     0.116 C 
ATOM     22  C   UNL     1      88.507 119.180 115.028  1.00  0.00     0.027 C 
ENDBRANCH  20  21
BRANCH  20  23
ATOM     23  C   UNL     1      91.254 120.486 114.794  1.00  0.00     0.116 C 
ATOM     24  C   UNL     1      92.250 119.981 113.760  1.00  0.00     0.027 C 
ENDBRANCH  20  23
ENDBRANCH   7  18
BRANCH   1  25
ATOM     25  C   UNL     1      93.303 122.072 119.982  1.00  0.00     0.085 C 
BRANCH  25  26
ATOM     26  C   UNL     1      92.655 121.306 121.148  1.00  0.00     0.012 C 
ATOM     27  C   UNL     1      91.631 122.133 121.915  1.00  0.00     0.005 C 
ENDBRANCH  25  26
ENDBRANCH   1  25
TORSDOF 5
ENDMDL
MODEL 16
REMARK VINA RESULT:    -6.935      3.232      5.745
REMARK INTER + INTRA:          -9.811
REMARK INTER:                  -9.313
REMARK INTRA:                  -0.498
REMARK UNBOUND:                -0.849
REMARK SMILES CCCN1C[C@H](C(=O)N(CC)CC)C=C2c3cccc4[nH]cc(c34)C[C@H]21
REMARK SMILES IDX 4 1 21 2 26 3 15 4 25 5 5 6 6 7 23 8 16 9 14 10 24 11 20 12
REMARK SMILES IDX 22 13 17 14 19 15 18 16 7 18 8 19 9 20 10 21 11 22 12 23
REMARK SMILES IDX 13 24 3 25 2 26 1 27
REMARK H PARENT 21 17
ROOT
ATOM      1  N   UNL     1      89.741 123.692 121.250  1.00  0.00    -0.295 NA
ATOM      2  N   UNL     1      94.181 122.546 117.312  1.00  0.00    -0.361 N 
ATOM      3  C   UNL     1      90.683 122.994 120.312  1.00  0.00     0.091 C 
ATOM      4  C   UNL     1      91.437 121.776 120.948  1.00  0.00    -0.026 C 
ATOM      5  C   UNL     1      91.577 123.994 119.489  1.00  0.00     0.061 C 
ATOM      6  C   UNL     1      88.924 122.676 121.951  1.00  0.00     0.102 C 
ATOM      7  C   UNL     1      89.752 121.682 122.786  1.00  0.00     0.116 C 
ATOM      8  C   UNL     1      92.594 123.261 118.687  1.00  0.00    -0.020 A 
ATOM      9  C   UNL     1      92.579 121.205 120.190  1.00  0.00    -0.011 A 
ATOM     10  C   UNL     1      91.011 121.218 122.101  1.00  0.00    -0.007 C 
ATOM     11  C   UNL     1      93.018 121.983 119.109  1.00  0.00     0.010 A 
ATOM     12  C   UNL     1      94.024 121.554 118.256  1.00  0.00     0.046 A 
ATOM     13  C   UNL     1      93.321 123.591 117.567  1.00  0.00     0.087 A 
ATOM     14  C   UNL     1      93.226 119.976 120.387  1.00  0.00     0.009 A 
ATOM     15  C   UNL     1      94.670 120.331 118.439  1.00  0.00     0.027 A 
ATOM     16  C   UNL     1      94.252 119.553 119.529  1.00  0.00     0.003 A 
ATOM     17  H   UNL     1      94.848 122.516 116.553  1.00  0.00     0.166 HD
ENDROOT
BRANCH   7  18
ATOM     18  C   UNL     1      88.855 120.548 123.317  1.00  0.00     0.230 C 
ATOM     19  O   UNL     1      88.492 120.611 124.500  1.00  0.00    -0.274 OA
ATOM     20  N   UNL     1      88.417 119.507 122.501  1.00  0.00    -0.343 N 
BRANCH  20  21
ATOM     21  C   UNL     1      87.467 118.553 123.084  1.00  0.00     0.116 C 
ATOM     22  C   UNL     1      86.507 118.008 122.037  1.00  0.00     0.027 C 
ENDBRANCH  20  21
BRANCH  20  23
ATOM     23  C   UNL     1      88.792 119.273 121.102  1.00  0.00     0.116 C 
ATOM     24  C   UNL     1      89.932 118.272 120.970  1.00  0.00     0.027 C 
ENDBRANCH  20  23
ENDBRANCH   7  18
BRANCH   1  25
ATOM     25  C   UNL     1      90.416 124.625 122.173  1.00  0.00     0.085 C 
BRANCH  25  26
ATOM     26  C   UNL     1      89.547 125.765 122.731  1.00  0.00     0.012 C 
ATOM     27  C   UNL     1      88.917 126.627 121.646  1.00  0.00     0.005 C 
ENDBRANCH  25  26
ENDBRANCH   1  25
TORSDOF 5
ENDMDL
MODEL 17
REMARK VINA RESULT:    -6.858      4.697      9.029
REMARK INTER + INTRA:          -9.711
REMARK INTER:                  -8.970
REMARK INTRA:                  -0.741
REMARK UNBOUND:                -0.849
REMARK SMILES CCCN1C[C@H](C(=O)N(CC)CC)C=C2c3cccc4[nH]cc(c34)C[C@H]21
REMARK SMILES IDX 4 1 21 2 26 3 15 4 25 5 5 6 6 7 23 8 16 9 14 10 24 11 20 12
REMARK SMILES IDX 22 13 17 14 19 15 18 16 7 18 8 19 9 20 10 21 11 22 12 23
REMARK SMILES IDX 13 24 3 25 2 26 1 27
REMARK H PARENT 21 17
ROOT
ATOM      1  N   UNL     1      90.692 123.798 122.270  1.00  0.00    -0.295 NA
ATOM      2  N   UNL     1      88.507 128.930 124.600  1.00  0.00    -0.361 N 
ATOM      3  C   UNL     1      89.946 124.785 123.122  1.00  0.00     0.091 C 
ATOM      4  C   UNL     1      88.402 124.530 123.197  1.00  0.00    -0.026 C 
ATOM      5  C   UNL     1      90.377 126.274 122.850  1.00  0.00     0.061 C 
ATOM      6  C   UNL     1      90.244 122.432 122.619  1.00  0.00     0.102 C 
ATOM      7  C   UNL     1      88.740 122.194 122.389  1.00  0.00     0.116 C 
ATOM      8  C   UNL     1      89.513 127.224 123.601  1.00  0.00    -0.020 A 
ATOM      9  C   UNL     1      87.557 125.602 123.781  1.00  0.00    -0.011 A 
ATOM     10  C   UNL     1      87.872 123.347 122.821  1.00  0.00    -0.007 C 
ATOM     11  C   UNL     1      88.207 126.831 123.965  1.00  0.00     0.010 A 
ATOM     12  C   UNL     1      87.580 127.911 124.569  1.00  0.00     0.046 A 
ATOM     13  C   UNL     1      89.684 128.526 124.010  1.00  0.00     0.087 A 
ATOM     14  C   UNL     1      86.225 125.522 124.215  1.00  0.00     0.009 A 
ATOM     15  C   UNL     1      86.258 127.839 125.009  1.00  0.00     0.027 A 
ATOM     16  C   UNL     1      85.592 126.621 124.813  1.00  0.00     0.003 A 
ATOM     17  H   UNL     1      88.336 129.849 124.984  1.00  0.00     0.166 HD
ENDROOT
BRANCH   7  18
ATOM     18  C   UNL     1      88.320 120.826 122.959  1.00  0.00     0.230 C 
ATOM     19  O   UNL     1      87.746 120.814 124.057  1.00  0.00    -0.274 OA
ATOM     20  N   UNL     1      88.524 119.638 122.259  1.00  0.00    -0.343 N 
BRANCH  20  21
ATOM     21  C   UNL     1      87.972 118.412 122.845  1.00  0.00     0.116 C 
ATOM     22  C   UNL     1      86.679 117.996 122.159  1.00  0.00     0.027 C 
ENDBRANCH  20  21
BRANCH  20  23
ATOM     23  C   UNL     1      89.223 119.484 120.979  1.00  0.00     0.116 C 
ATOM     24  C   UNL     1      90.676 119.072 121.160  1.00  0.00     0.027 C 
ENDBRANCH  20  23
ENDBRANCH   7  18
BRANCH   1  25
ATOM     25  C   UNL     1      90.600 124.083 120.825  1.00  0.00     0.085 C 
BRANCH  25  26
ATOM     26  C   UNL     1      91.008 122.934 119.887  1.00  0.00     0.012 C 
ATOM     27  C   UNL     1      92.262 123.236 119.077  1.00  0.00     0.005 C 
ENDBRANCH  25  26
ENDBRANCH   1  25
TORSDOF 5
ENDMDL
MODEL 18
REMARK VINA RESULT:    -6.837      3.786      8.066
REMARK INTER + INTRA:          -9.685
REMARK INTER:                  -9.650
REMARK INTRA:                  -0.035
REMARK UNBOUND:                -0.849
REMARK SMILES CCCN1C[C@H](C(=O)N(CC)CC)C=C2c3cccc4[nH]cc(c34)C[C@H]21
REMARK SMILES IDX 4 1 21 2 26 3 15 4 25 5 5 6 6 7 23 8 16 9 14 10 24 11 20 12
REMARK SMILES IDX 22 13 17 14 19 15 18 16 7 18 8 19 9 20 10 21 11 22 12 23
REMARK SMILES IDX 13 24 3 25 2 26 1 27
REMARK H PARENT 21 17
ROOT
ATOM      1  N   UNL     1      91.586 122.701 121.030  1.00  0.00    -0.295 NA
ATOM      2  N   UNL     1      88.779 126.618 124.679  1.00  0.00    -0.361 N 
ATOM      3  C   UNL     1      90.714 123.297 122.097  1.00  0.00     0.091 C 
ATOM      4  C   UNL     1      89.207 122.875 122.005  1.00  0.00    -0.026 C 
ATOM      5  C   UNL     1      90.978 124.833 122.314  1.00  0.00     0.061 C 
ATOM      6  C   UNL     1      91.290 121.255 120.924  1.00  0.00     0.102 C 
ATOM      7  C   UNL     1      89.828 120.947 120.548  1.00  0.00     0.116 C 
ATOM      8  C   UNL     1      89.995 125.413 123.268  1.00  0.00    -0.020 A 
ATOM      9  C   UNL     1      88.233 123.624 122.838  1.00  0.00    -0.011 A 
ATOM     10  C   UNL     1      88.824 121.817 121.259  1.00  0.00    -0.007 C 
ATOM     11  C   UNL     1      88.734 124.797 123.422  1.00  0.00     0.010 A 
ATOM     12  C   UNL     1      87.975 125.569 124.288  1.00  0.00     0.046 A 
ATOM     13  C   UNL     1      90.007 126.537 124.060  1.00  0.00     0.087 A 
ATOM     14  C   UNL     1      86.909 123.280 123.152  1.00  0.00     0.009 A 
ATOM     15  C   UNL     1      86.660 125.231 124.611  1.00  0.00     0.027 A 
ATOM     16  C   UNL     1      86.142 124.071 124.018  1.00  0.00     0.003 A 
ATOM     17  H   UNL     1      88.496 127.352 125.313  1.00  0.00     0.166 HD
ENDROOT
BRANCH   7  18
ATOM     18  C   UNL     1      89.554 119.435 120.652  1.00  0.00     0.230 C 
ATOM     19  O   UNL     1      90.002 118.708 119.753  1.00  0.00    -0.274 OA
ATOM     20  N   UNL     1      88.871 118.879 121.732  1.00  0.00    -0.343 N 
BRANCH  20  21
ATOM     21  C   UNL     1      88.777 117.416 121.783  1.00  0.00     0.116 C 
ATOM     22  C   UNL     1      87.557 116.961 122.570  1.00  0.00     0.027 C 
ENDBRANCH  20  21
BRANCH  20  23
ATOM     23  C   UNL     1      88.247 119.606 122.842  1.00  0.00     0.116 C 
ATOM     24  C   UNL     1      89.211 119.833 123.998  1.00  0.00     0.027 C 
ENDBRANCH  20  23
ENDBRANCH   7  18
BRANCH   1  25
ATOM     25  C   UNL     1      91.495 123.405 119.736  1.00  0.00     0.085 C 
BRANCH  25  26
ATOM     26  C   UNL     1      92.392 122.862 118.611  1.00  0.00     0.012 C 
ATOM     27  C   UNL     1      93.644 123.698 118.385  1.00  0.00     0.005 C 
ENDBRANCH  25  26
ENDBRANCH   1  25
TORSDOF 5
ENDMDL
MODEL 19
REMARK VINA RESULT:    -6.523      2.522      7.523
REMARK INTER + INTRA:          -9.279
REMARK INTER:                  -9.630
REMARK INTRA:                   0.351
REMARK UNBOUND:                -0.849
REMARK SMILES CCCN1C[C@H](C(=O)N(CC)CC)C=C2c3cccc4[nH]cc(c34)C[C@H]21
REMARK SMILES IDX 4 1 21 2 26 3 15 4 25 5 5 6 6 7 23 8 16 9 14 10 24 11 20 12
REMARK SMILES IDX 22 13 17 14 19 15 18 16 7 18 8 19 9 20 10 21 11 22 12 23
REMARK SMILES IDX 13 24 3 25 2 26 1 27
REMARK H PARENT 21 17
ROOT
ATOM      1  N   UNL     1      90.602 120.730 120.230  1.00  0.00    -0.295 NA
ATOM      2  N   UNL     1      86.871 124.435 123.213  1.00  0.00    -0.361 N 
ATOM      3  C   UNL     1      89.728 121.894 120.602  1.00  0.00     0.091 C 
ATOM      4  C   UNL     1      90.443 123.286 120.516  1.00  0.00    -0.026 C 
ATOM      5  C   UNL     1      88.893 121.637 121.911  1.00  0.00     0.061 C 
ATOM      6  C   UNL     1      91.318 121.053 118.976  1.00  0.00     0.102 C 
ATOM      7  C   UNL     1      92.224 122.294 119.079  1.00  0.00     0.116 C 
ATOM      8  C   UNL     1      88.159 122.863 122.323  1.00  0.00    -0.020 A 
ATOM      9  C   UNL     1      89.750 124.451 121.124  1.00  0.00    -0.011 A 
ATOM     10  C   UNL     1      91.603 123.434 119.844  1.00  0.00    -0.007 C 
ATOM     11  C   UNL     1      88.651 124.128 121.933  1.00  0.00     0.010 A 
ATOM     12  C   UNL     1      87.853 125.103 122.512  1.00  0.00     0.046 A 
ATOM     13  C   UNL     1      87.051 123.073 123.110  1.00  0.00     0.087 A 
ATOM     14  C   UNL     1      90.022 125.816 120.946  1.00  0.00     0.009 A 
ATOM     15  C   UNL     1      88.112 126.463 122.336  1.00  0.00     0.027 A 
ATOM     16  C   UNL     1      89.219 126.797 121.545  1.00  0.00     0.003 A 
ATOM     17  H   UNL     1      86.138 124.885 123.744  1.00  0.00     0.166 HD
ENDROOT
BRANCH   7  18
ATOM     18  C   UNL     1      92.773 122.675 117.692  1.00  0.00     0.230 C 
ATOM     19  O   UNL     1      93.114 123.854 117.515  1.00  0.00    -0.274 OA
ATOM     20  N   UNL     1      92.934 121.736 116.675  1.00  0.00    -0.343 N 
BRANCH  20  21
ATOM     21  C   UNL     1      93.581 122.191 115.440  1.00  0.00     0.116 C 
ATOM     22  C   UNL     1      92.980 121.519 114.214  1.00  0.00     0.027 C 
ENDBRANCH  20  21
BRANCH  20  23
ATOM     23  C   UNL     1      92.540 120.324 116.717  1.00  0.00     0.116 C 
ATOM     24  C   UNL     1      93.726 119.400 116.958  1.00  0.00     0.027 C 
ENDBRANCH  20  23
ENDBRANCH   7  18
BRANCH   1  25
ATOM     25  C   UNL     1      91.505 120.305 121.317  1.00  0.00     0.085 C 
BRANCH  25  26
ATOM     26  C   UNL     1      92.309 119.019 121.057  1.00  0.00     0.012 C 
ATOM     27  C   UNL     1      93.739 119.284 120.609  1.00  0.00     0.005 C 
ENDBRANCH  25  26
ENDBRANCH   1  25
TORSDOF 5
ENDMDL
MODEL 20
REMARK VINA RESULT:    -6.488      5.456      8.634
REMARK INTER + INTRA:          -9.233
REMARK INTER:                  -8.916
REMARK INTRA:                  -0.317
REMARK UNBOUND:                -0.849
REMARK SMILES CCCN1C[C@H](C(=O)N(CC)CC)C=C2c3cccc4[nH]cc(c34)C[C@H]21
REMARK SMILES IDX 4 1 21 2 26 3 15 4 25 5 5 6 6 7 23 8 16 9 14 10 24 11 20 12
REMARK SMILES IDX 22 13 17 14 19 15 18 16 7 18 8 19 9 20 10 21 11 22 12 23
REMARK SMILES IDX 13 24 3 25 2 26 1 27
REMARK H PARENT 21 17
ROOT
ATOM      1  N   UNL     1      89.411 124.243 121.133  1.00  0.00    -0.295 NA
ATOM      2  N   UNL     1      90.047 118.344 119.978  1.00  0.00    -0.361 N 
ATOM      3  C   UNL     1      89.143 122.773 120.979  1.00  0.00     0.091 C 
ATOM      4  C   UNL     1      88.597 122.081 122.275  1.00  0.00    -0.026 C 
ATOM      5  C   UNL     1      90.309 122.014 120.243  1.00  0.00     0.061 C 
ATOM      6  C   UNL     1      88.251 124.872 121.803  1.00  0.00     0.102 C 
ATOM      7  C   UNL     1      87.963 124.307 123.206  1.00  0.00     0.116 C 
ATOM      8  C   UNL     1      90.073 120.546 120.245  1.00  0.00    -0.020 A 
ATOM      9  C   UNL     1      88.567 120.597 122.299  1.00  0.00    -0.011 A 
ATOM     10  C   UNL     1      88.096 122.809 123.295  1.00  0.00    -0.007 C 
ATOM     11  C   UNL     1      89.273 119.975 121.258  1.00  0.00     0.010 A 
ATOM     12  C   UNL     1      89.280 118.598 121.096  1.00  0.00     0.046 A 
ATOM     13  C   UNL     1      90.538 119.520 119.456  1.00  0.00     0.087 A 
ATOM     14  C   UNL     1      87.886 119.754 123.190  1.00  0.00     0.009 A 
ATOM     15  C   UNL     1      88.601 117.752 121.973  1.00  0.00     0.027 A 
ATOM     16  C   UNL     1      87.908 118.361 123.028  1.00  0.00     0.003 A 
ATOM     17  H   UNL     1      90.235 117.422 119.610  1.00  0.00     0.166 HD
ENDROOT
BRANCH   7  18
ATOM     18  C   UNL     1      86.635 124.867 123.749  1.00  0.00     0.230 C 
ATOM     19  O   UNL     1      85.762 124.052 124.081  1.00  0.00    -0.274 OA
ATOM     20  N   UNL     1      86.420 126.234 123.915  1.00  0.00    -0.343 N 
BRANCH  20  21
ATOM     21  C   UNL     1      85.165 126.642 124.554  1.00  0.00     0.116 C 
ATOM     22  C   UNL     1      85.415 127.349 125.878  1.00  0.00     0.027 C 
ENDBRANCH  20  21
BRANCH  20  23
ATOM     23  C   UNL     1      87.332 127.317 123.531  1.00  0.00     0.116 C 
ATOM     24  C   UNL     1      86.729 128.234 122.477  1.00  0.00     0.027 C 
ENDBRANCH  20  23
ENDBRANCH   7  18
BRANCH   1  25
ATOM     25  C   UNL     1      90.693 124.539 121.802  1.00  0.00     0.085 C 
BRANCH  25  26
ATOM     26  C   UNL     1      90.940 126.016 122.155  1.00  0.00     0.012 C 
ATOM     27  C   UNL     1      90.769 126.316 123.638  1.00  0.00     0.005 C 
ENDBRANCH  25  26
ENDBRANCH   1  25
TORSDOF 5
ENDMDL
