MODEL 1
REMARK VINA RESULT:    -8.672      0.000      0.000
REMARK INTER + INTRA:         -11.885
REMARK INTER:                 -11.206
REMARK INTRA:                  -0.679
REMARK UNBOUND:                -0.679
REMARK SMILES CCCN1C[C@H](C(=O)N(CC)CC)C=C2c3cccc4[nH]cc(c34)C[C@H]21
REMARK SMILES IDX 4 1 21 2 26 3 15 4 25 5 5 6 6 7 23 8 16 9 14 10 24 11 20 12
REMARK SMILES IDX 22 13 17 14 19 15 18 16 7 18 8 19 9 20 10 21 11 22 12 23
REMARK SMILES IDX 13 24 3 25 2 26 1 27
REMARK H PARENT 21 17
ROOT
ATOM      1  N   UNL     1      37.316  30.667  60.480  1.00  0.00    -0.295 NA
ATOM      2  N   UNL     1      38.592  27.659  55.395  1.00  0.00    -0.361 N 
ATOM      3  C   UNL     1      37.990  30.187  59.226  1.00  0.00     0.091 C 
ATOM      4  C   UNL     1      38.313  31.322  58.196  1.00  0.00    -0.026 C 
ATOM      5  C   UNL     1      37.317  28.896  58.628  1.00  0.00     0.061 C 
ATOM      6  C   UNL     1      38.036  31.858  60.983  1.00  0.00     0.102 C 
ATOM      7  C   UNL     1      38.056  33.036  59.991  1.00  0.00     0.116 C 
ATOM      8  C   UNL     1      37.918  28.543  57.314  1.00  0.00    -0.020 A 
ATOM      9  C   UNL     1      38.721  30.911  56.828  1.00  0.00    -0.011 A 
ATOM     10  C   UNL     1      38.301  32.621  58.563  1.00  0.00    -0.007 C 
ATOM     11  C   UNL     1      38.523  29.554  56.536  1.00  0.00     0.010 A 
ATOM     12  C   UNL     1      38.921  28.996  55.331  1.00  0.00     0.046 A 
ATOM     13  C   UNL     1      37.976  27.373  56.593  1.00  0.00     0.087 A 
ATOM     14  C   UNL     1      39.322  31.691  55.828  1.00  0.00     0.009 A 
ATOM     15  C   UNL     1      39.525  29.761  54.332  1.00  0.00     0.027 A 
ATOM     16  C   UNL     1      39.711  31.124  54.606  1.00  0.00     0.003 A 
ATOM     17  H   UNL     1      38.762  26.991  54.655  1.00  0.00     0.166 HD
ENDROOT
BRANCH   7  18
ATOM     18  C   UNL     1      38.986  34.153  60.502  1.00  0.00     0.230 C 
ATOM     19  O   UNL     1      40.187  33.880  60.642  1.00  0.00    -0.274 OA
ATOM     20  N   UNL     1      38.522  35.442  60.758  1.00  0.00    -0.343 N 
BRANCH  20  21
ATOM     21  C   UNL     1      39.521  36.453  61.122  1.00  0.00     0.116 C 
ATOM     22  C   UNL     1      39.089  37.254  62.341  1.00  0.00     0.027 C 
ENDBRANCH  20  21
BRANCH  20  23
ATOM     23  C   UNL     1      37.133  35.905  60.682  1.00  0.00     0.116 C 
ATOM     24  C   UNL     1      36.851  36.681  59.403  1.00  0.00     0.027 C 
ENDBRANCH  20  23
ENDBRANCH   7  18
BRANCH   1  25
ATOM     25  C   UNL     1      35.867  30.897  60.316  1.00  0.00     0.085 C 
BRANCH  25  26
ATOM     26  C   UNL     1      35.289  32.105  61.072  1.00  0.00     0.012 C 
ATOM     27  C   UNL     1      34.292  32.909  60.248  1.00  0.00     0.005 C 
ENDBRANCH  25  26
ENDBRANCH   1  25
TORSDOF 5
ENDMDL
MODEL 2
REMARK VINA RESULT:    -8.467      3.109      5.282
REMARK INTER + INTRA:         -11.621
REMARK INTER:                 -10.988
REMARK INTRA:                  -0.633
REMARK UNBOUND:                -0.679
REMARK SMILES CCCN1C[C@H](C(=O)N(CC)CC)C=C2c3cccc4[nH]cc(c34)C[C@H]21
REMARK SMILES IDX 4 1 21 2 26 3 15 4 25 5 5 6 6 7 23 8 16 9 14 10 24 11 20 12
REMARK SMILES IDX 22 13 17 14 19 15 18 16 7 18 8 19 9 20 10 21 11 22 12 23
REMARK SMILES IDX 13 24 3 25 2 26 1 27
REMARK H PARENT 21 17
ROOT
ATOM      1  N   UNL     1      39.601  26.069  57.244  1.00  0.00    -0.295 NA
ATOM      2  N   UNL     1      39.555  28.160  51.573  1.00  0.00    -0.361 N 
ATOM      3  C   UNL     1      39.836  26.910  56.022  1.00  0.00     0.091 C 
ATOM      4  C   UNL     1      39.413  28.411  56.184  1.00  0.00    -0.026 C 
ATOM      5  C   UNL     1      39.358  26.208  54.697  1.00  0.00     0.061 C 
ATOM      6  C   UNL     1      40.110  26.796  58.429  1.00  0.00     0.102 C 
ATOM      7  C   UNL     1      39.425  28.155  58.666  1.00  0.00     0.116 C 
ATOM      8  C   UNL     1      39.471  27.130  53.536  1.00  0.00    -0.020 A 
ATOM      9  C   UNL     1      39.351  29.242  54.955  1.00  0.00    -0.011 A 
ATOM     10  C   UNL     1      39.196  28.946  57.404  1.00  0.00    -0.007 C 
ATOM     11  C   UNL     1      39.429  28.524  53.752  1.00  0.00     0.010 A 
ATOM     12  C   UNL     1      39.460  29.158  52.520  1.00  0.00     0.046 A 
ATOM     13  C   UNL     1      39.557  26.923  52.179  1.00  0.00     0.087 A 
ATOM     14  C   UNL     1      39.281  30.639  54.852  1.00  0.00     0.009 A 
ATOM     15  C   UNL     1      39.397  30.547  52.407  1.00  0.00     0.027 A 
ATOM     16  C   UNL     1      39.300  31.274  53.602  1.00  0.00     0.003 A 
ATOM     17  H   UNL     1      39.597  28.318  50.576  1.00  0.00     0.166 HD
ENDROOT
BRANCH   7  18
ATOM     18  C   UNL     1      40.141  28.930  59.787  1.00  0.00     0.230 C 
ATOM     19  O   UNL     1      41.309  28.608  60.051  1.00  0.00    -0.274 OA
ATOM     20  N   UNL     1      39.534  29.989  60.460  1.00  0.00    -0.343 N 
BRANCH  20  21
ATOM     21  C   UNL     1      40.356  30.730  61.422  1.00  0.00     0.116 C 
ATOM     22  C   UNL     1      39.678  30.829  62.780  1.00  0.00     0.027 C 
ENDBRANCH  20  21
BRANCH  20  23
ATOM     23  C   UNL     1      38.154  30.457  60.293  1.00  0.00     0.116 C 
ATOM     24  C   UNL     1      38.078  31.766  59.520  1.00  0.00     0.027 C 
ENDBRANCH  20  23
ENDBRANCH   7  18
BRANCH   1  25
ATOM     25  C   UNL     1      38.200  25.633  57.395  1.00  0.00     0.085 C 
BRANCH  25  26
ATOM     26  C   UNL     1      37.917  24.156  57.068  1.00  0.00     0.012 C 
ATOM     27  C   UNL     1      36.984  23.972  55.880  1.00  0.00     0.005 C 
ENDBRANCH  25  26
ENDBRANCH   1  25
TORSDOF 5
ENDMDL
MODEL 3
REMARK VINA RESULT:    -8.298      2.394      5.634
REMARK INTER + INTRA:         -11.402
REMARK INTER:                 -11.614
REMARK INTRA:                   0.213
REMARK UNBOUND:                -0.679
REMARK SMILES CCCN1C[C@H](C(=O)N(CC)CC)C=C2c3cccc4[nH]cc(c34)C[C@H]21
REMARK SMILES IDX 4 1 21 2 26 3 15 4 25 5 5 6 6 7 23 8 16 9 14 10 24 11 20 12
REMARK SMILES IDX 22 13 17 14 19 15 18 16 7 18 8 19 9 20 10 21 11 22 12 23
REMARK SMILES IDX 13 24 3 25 2 26 1 27
REMARK H PARENT 21 17
ROOT
ATOM      1  N   UNL     1      38.162  30.036  53.841  1.00  0.00    -0.295 NA
ATOM      2  N   UNL     1      37.360  24.310  55.604  1.00  0.00    -0.361 N 
ATOM      3  C   UNL     1      37.814  28.817  54.647  1.00  0.00     0.091 C 
ATOM      4  C   UNL     1      38.489  28.767  56.060  1.00  0.00    -0.026 C 
ATOM      5  C   UNL     1      37.892  27.488  53.807  1.00  0.00     0.061 C 
ATOM      6  C   UNL     1      38.028  31.232  54.703  1.00  0.00     0.102 C 
ATOM      7  C   UNL     1      38.951  31.216  55.935  1.00  0.00     0.116 C 
ATOM      8  C   UNL     1      37.687  26.298  54.675  1.00  0.00    -0.020 A 
ATOM      9  C   UNL     1      38.425  27.484  56.805  1.00  0.00    -0.011 A 
ATOM     10  C   UNL     1      39.034  29.872  56.611  1.00  0.00    -0.007 C 
ATOM     11  C   UNL     1      37.990  26.385  56.051  1.00  0.00     0.010 A 
ATOM     12  C   UNL     1      37.803  25.133  56.618  1.00  0.00     0.046 A 
ATOM     13  C   UNL     1      37.291  25.006  54.418  1.00  0.00     0.087 A 
ATOM     14  C   UNL     1      38.689  27.253  58.164  1.00  0.00     0.009 A 
ATOM     15  C   UNL     1      38.058  24.894  57.969  1.00  0.00     0.027 A 
ATOM     16  C   UNL     1      38.511  25.982  58.728  1.00  0.00     0.003 A 
ATOM     17  H   UNL     1      37.139  23.331  55.717  1.00  0.00     0.166 HD
ENDROOT
BRANCH   7  18
ATOM     18  C   UNL     1      38.611  32.387  56.876  1.00  0.00     0.230 C 
ATOM     19  O   UNL     1      38.411  33.496  56.361  1.00  0.00    -0.274 OA
ATOM     20  N   UNL     1      38.482  32.217  58.253  1.00  0.00    -0.343 N 
BRANCH  20  21
ATOM     21  C   UNL     1      38.035  33.376  59.032  1.00  0.00     0.116 C 
ATOM     22  C   UNL     1      39.113  33.854  59.994  1.00  0.00     0.027 C 
ENDBRANCH  20  21
BRANCH  20  23
ATOM     23  C   UNL     1      38.729  30.985  59.011  1.00  0.00     0.116 C 
ATOM     24  C   UNL     1      37.486  30.499  59.743  1.00  0.00     0.027 C 
ENDBRANCH  20  23
ENDBRANCH   7  18
BRANCH   1  25
ATOM     25  C   UNL     1      39.479  29.946  53.181  1.00  0.00     0.085 C 
BRANCH  25  26
ATOM     26  C   UNL     1      39.459  29.565  51.691  1.00  0.00     0.012 C 
ATOM     27  C   UNL     1      40.252  30.525  50.814  1.00  0.00     0.005 C 
ENDBRANCH  25  26
ENDBRANCH   1  25
TORSDOF 5
ENDMDL
MODEL 4
REMARK VINA RESULT:    -8.211      3.150      6.832
REMARK INTER + INTRA:         -11.290
REMARK INTER:                 -10.671
REMARK INTRA:                  -0.618
REMARK UNBOUND:                -0.679
REMARK SMILES CCCN1C[C@H](C(=O)N(CC)CC)C=C2c3cccc4[nH]cc(c34)C[C@H]21
REMARK SMILES IDX 4 1 21 2 26 3 15 4 25 5 5 6 6 7 23 8 16 9 14 10 24 11 20 12
REMARK SMILES IDX 22 13 17 14 19 15 18 16 7 18 8 19 9 20 10 21 11 22 12 23
REMARK SMILES IDX 13 24 3 25 2 26 1 27
REMARK H PARENT 21 17
ROOT
ATOM      1  N   UNL     1      37.742  31.997  60.040  1.00  0.00    -0.295 NA
ATOM      2  N   UNL     1      37.208  38.011  59.749  1.00  0.00    -0.361 N 
ATOM      3  C   UNL     1      38.044  33.468  60.066  1.00  0.00     0.091 C 
ATOM      4  C   UNL     1      38.709  33.964  61.395  1.00  0.00    -0.026 C 
ATOM      5  C   UNL     1      36.849  34.345  59.535  1.00  0.00     0.061 C 
ATOM      6  C   UNL     1      38.929  31.258  60.524  1.00  0.00     0.102 C 
ATOM      7  C   UNL     1      39.341  31.618  61.964  1.00  0.00     0.116 C 
ATOM      8  C   UNL     1      37.132  35.794  59.717  1.00  0.00    -0.020 A 
ATOM      9  C   UNL     1      38.788  35.430  61.618  1.00  0.00    -0.011 A 
ATOM     10  C   UNL     1      39.264  33.092  62.264  1.00  0.00    -0.007 C 
ATOM     11  C   UNL     1      38.026  36.203  60.730  1.00  0.00     0.010 A 
ATOM     12  C   UNL     1      38.049  37.589  60.757  1.00  0.00     0.046 A 
ATOM     13  C   UNL     1      36.641  36.929  59.114  1.00  0.00     0.087 A 
ATOM     14  C   UNL     1      39.562  36.128  62.557  1.00  0.00     0.009 A 
ATOM     15  C   UNL     1      38.821  38.293  61.683  1.00  0.00     0.027 A 
ATOM     16  C   UNL     1      39.573  37.530  62.587  1.00  0.00     0.003 A 
ATOM     17  H   UNL     1      37.022  38.979  59.525  1.00  0.00     0.166 HD
ENDROOT
BRANCH   7  18
ATOM     18  C   UNL     1      40.688  30.961  62.317  1.00  0.00     0.230 C 
ATOM     19  O   UNL     1      41.324  30.425  61.398  1.00  0.00    -0.274 OA
ATOM     20  N   UNL     1      41.214  30.998  63.607  1.00  0.00    -0.343 N 
BRANCH  20  21
ATOM     21  C   UNL     1      42.560  30.447  63.798  1.00  0.00     0.116 C 
ATOM     22  C   UNL     1      42.534  29.191  64.656  1.00  0.00     0.027 C 
ENDBRANCH  20  21
BRANCH  20  23
ATOM     23  C   UNL     1      40.567  31.552  64.801  1.00  0.00     0.116 C 
ATOM     24  C   UNL     1      41.272  32.800  65.314  1.00  0.00     0.027 C 
ENDBRANCH  20  23
ENDBRANCH   7  18
BRANCH   1  25
ATOM     25  C   UNL     1      36.506  31.639  60.764  1.00  0.00     0.085 C 
BRANCH  25  26
ATOM     26  C   UNL     1      35.437  30.899  59.942  1.00  0.00     0.012 C 
ATOM     27  C   UNL     1      36.021  29.859  58.995  1.00  0.00     0.005 C 
ENDBRANCH  25  26
ENDBRANCH   1  25
TORSDOF 5
ENDMDL
MODEL 5
REMARK VINA RESULT:    -8.075      2.712      5.038
REMARK INTER + INTRA:         -11.114
REMARK INTER:                 -10.206
REMARK INTRA:                  -0.908
REMARK UNBOUND:                -0.679
REMARK SMILES CCCN1C[C@H](C(=O)N(CC)CC)C=C2c3cccc4[nH]cc(c34)C[C@H]21
REMARK SMILES IDX 4 1 21 2 26 3 15 4 25 5 5 6 6 7 23 8 16 9 14 10 24 11 20 12
REMARK SMILES IDX 22 13 17 14 19 15 18 16 7 18 8 19 9 20 10 21 11 22 12 23
REMARK SMILES IDX 13 24 3 25 2 26 1 27
REMARK H PARENT 21 17
ROOT
ATOM      1  N   UNL     1      37.913  32.586  58.930  1.00  0.00    -0.295 NA
ATOM      2  N   UNL     1      41.219  28.326  61.661  1.00  0.00    -0.361 N 
ATOM      3  C   UNL     1      38.518  31.683  59.966  1.00  0.00     0.091 C 
ATOM      4  C   UNL     1      39.170  32.438  61.175  1.00  0.00    -0.026 C 
ATOM      5  C   UNL     1      39.384  30.528  59.338  1.00  0.00     0.061 C 
ATOM      6  C   UNL     1      37.095  33.614  59.612  1.00  0.00     0.102 C 
ATOM      7  C   UNL     1      37.896  34.500  60.584  1.00  0.00     0.116 C 
ATOM      8  C   UNL     1      40.082  29.751  60.397  1.00  0.00    -0.020 A 
ATOM      9  C   UNL     1      40.025  31.648  62.097  1.00  0.00    -0.011 A 
ATOM     10  C   UNL     1      38.896  33.738  61.414  1.00  0.00    -0.007 C 
ATOM     11  C   UNL     1      40.362  30.367  61.636  1.00  0.00     0.010 A 
ATOM     12  C   UNL     1      41.091  29.476  62.410  1.00  0.00     0.046 A 
ATOM     13  C   UNL     1      40.615  28.484  60.433  1.00  0.00     0.087 A 
ATOM     14  C   UNL     1      40.484  32.000  63.375  1.00  0.00     0.009 A 
ATOM     15  C   UNL     1      41.547  29.814  63.685  1.00  0.00     0.027 A 
ATOM     16  C   UNL     1      41.232  31.100  64.148  1.00  0.00     0.003 A 
ATOM     17  H   UNL     1      41.706  27.495  61.966  1.00  0.00     0.166 HD
ENDROOT
BRANCH   7  18
ATOM     18  C   UNL     1      36.946  35.403  61.394  1.00  0.00     0.230 C 
ATOM     19  O   UNL     1      35.913  34.889  61.847  1.00  0.00    -0.274 OA
ATOM     20  N   UNL     1      37.242  36.739  61.660  1.00  0.00    -0.343 N 
BRANCH  20  21
ATOM     21  C   UNL     1      36.324  37.465  62.545  1.00  0.00     0.116 C 
ATOM     22  C   UNL     1      35.901  38.795  61.941  1.00  0.00     0.027 C 
ENDBRANCH  20  21
BRANCH  20  23
ATOM     23  C   UNL     1      38.395  37.497  61.162  1.00  0.00     0.116 C 
ATOM     24  C   UNL     1      39.594  37.404  62.094  1.00  0.00     0.027 C 
ENDBRANCH  20  23
ENDBRANCH   7  18
BRANCH   1  25
ATOM     25  C   UNL     1      38.906  33.163  58.003  1.00  0.00     0.085 C 
BRANCH  25  26
ATOM     26  C   UNL     1      38.565  33.061  56.506  1.00  0.00     0.012 C 
ATOM     27  C   UNL     1      38.860  31.690  55.914  1.00  0.00     0.005 C 
ENDBRANCH  25  26
ENDBRANCH   1  25
TORSDOF 5
ENDMDL
MODEL 6
REMARK VINA RESULT:    -8.032      3.112      7.102
REMARK INTER + INTRA:         -11.059
REMARK INTER:                 -10.747
REMARK INTRA:                  -0.312
REMARK UNBOUND:                -0.679
REMARK SMILES CCCN1C[C@H](C(=O)N(CC)CC)C=C2c3cccc4[nH]cc(c34)C[C@H]21
REMARK SMILES IDX 4 1 21 2 26 3 15 4 25 5 5 6 6 7 23 8 16 9 14 10 24 11 20 12
REMARK SMILES IDX 22 13 17 14 19 15 18 16 7 18 8 19 9 20 10 21 11 22 12 23
REMARK SMILES IDX 13 24 3 25 2 26 1 27
REMARK H PARENT 21 17
ROOT
ATOM      1  N   UNL     1      39.183  28.308  59.843  1.00  0.00    -0.295 NA
ATOM      2  N   UNL     1      37.971  33.888  57.859  1.00  0.00    -0.361 N 
ATOM      3  C   UNL     1      38.695  29.464  59.017  1.00  0.00     0.091 C 
ATOM      4  C   UNL     1      39.187  29.443  57.529  1.00  0.00    -0.026 C 
ATOM      5  C   UNL     1      38.832  30.845  59.760  1.00  0.00     0.061 C 
ATOM      6  C   UNL     1      38.984  27.057  59.078  1.00  0.00     0.102 C 
ATOM      7  C   UNL     1      39.746  27.020  57.740  1.00  0.00     0.116 C 
ATOM      8  C   UNL     1      38.479  31.972  58.855  1.00  0.00    -0.020 A 
ATOM      9  C   UNL     1      38.987  30.674  56.723  1.00  0.00    -0.011 A 
ATOM     10  C   UNL     1      39.698  28.321  56.980  1.00  0.00    -0.007 C 
ATOM     11  C   UNL     1      38.611  31.807  57.460  1.00  0.00     0.010 A 
ATOM     12  C   UNL     1      38.313  33.015  56.848  1.00  0.00     0.046 A 
ATOM     13  C   UNL     1      38.074  33.267  59.084  1.00  0.00     0.087 A 
ATOM     14  C   UNL     1      39.072  30.826  55.331  1.00  0.00     0.009 A 
ATOM     15  C   UNL     1      38.388  33.175  55.463  1.00  0.00     0.027 A 
ATOM     16  C   UNL     1      38.781  32.054  54.719  1.00  0.00     0.003 A 
ATOM     17  H   UNL     1      37.703  34.852  57.717  1.00  0.00     0.166 HD
ENDROOT
BRANCH   7  18
ATOM     18  C   UNL     1      39.332  25.783  56.920  1.00  0.00     0.230 C 
ATOM     19  O   UNL     1      39.884  24.707  57.190  1.00  0.00    -0.274 OA
ATOM     20  N   UNL     1      38.342  25.841  55.941  1.00  0.00    -0.343 N 
BRANCH  20  21
ATOM     21  C   UNL     1      37.947  24.576  55.313  1.00  0.00     0.116 C 
ATOM     22  C   UNL     1      36.560  24.137  55.761  1.00  0.00     0.027 C 
ENDBRANCH  20  21
BRANCH  20  23
ATOM     23  C   UNL     1      37.634  27.040  55.481  1.00  0.00     0.116 C 
ATOM     24  C   UNL     1      37.711  27.213  53.971  1.00  0.00     0.027 C 
ENDBRANCH  20  23
ENDBRANCH   7  18
BRANCH   1  25
ATOM     25  C   UNL     1      40.568  28.475  60.325  1.00  0.00     0.085 C 
BRANCH  25  26
ATOM     26  C   UNL     1      40.765  28.385  61.848  1.00  0.00     0.012 C 
ATOM     27  C   UNL     1      40.976  29.741  62.508  1.00  0.00     0.005 C 
ENDBRANCH  25  26
ENDBRANCH   1  25
TORSDOF 5
ENDMDL
MODEL 7
REMARK VINA RESULT:    -7.994      2.175      3.454
REMARK INTER + INTRA:         -11.009
REMARK INTER:                 -10.148
REMARK INTRA:                  -0.861
REMARK UNBOUND:                -0.679
REMARK SMILES CCCN1C[C@H](C(=O)N(CC)CC)C=C2c3cccc4[nH]cc(c34)C[C@H]21
REMARK SMILES IDX 4 1 21 2 26 3 15 4 25 5 5 6 6 7 23 8 16 9 14 10 24 11 20 12
REMARK SMILES IDX 22 13 17 14 19 15 18 16 7 18 8 19 9 20 10 21 11 22 12 23
REMARK SMILES IDX 13 24 3 25 2 26 1 27
REMARK H PARENT 21 17
ROOT
ATOM      1  N   UNL     1      39.850  29.332  59.369  1.00  0.00    -0.295 NA
ATOM      2  N   UNL     1      39.583  26.210  54.200  1.00  0.00    -0.361 N 
ATOM      3  C   UNL     1      39.707  28.964  57.920  1.00  0.00     0.091 C 
ATOM      4  C   UNL     1      38.370  29.449  57.263  1.00  0.00    -0.026 C 
ATOM      5  C   UNL     1      40.106  27.469  57.629  1.00  0.00     0.061 C 
ATOM      6  C   UNL     1      39.487  30.757  59.538  1.00  0.00     0.102 C 
ATOM      7  C   UNL     1      38.040  31.082  59.121  1.00  0.00     0.116 C 
ATOM      8  C   UNL     1      39.809  27.105  56.218  1.00  0.00    -0.020 A 
ATOM      9  C   UNL     1      38.022  28.898  55.929  1.00  0.00    -0.011 A 
ATOM     10  C   UNL     1      37.607  30.394  57.852  1.00  0.00    -0.007 C 
ATOM     11  C   UNL     1      38.803  27.808  55.519  1.00  0.00     0.010 A 
ATOM     12  C   UNL     1      38.655  27.227  54.268  1.00  0.00     0.046 A 
ATOM     13  C   UNL     1      40.286  26.123  55.382  1.00  0.00     0.087 A 
ATOM     14  C   UNL     1      37.059  29.362  55.020  1.00  0.00     0.009 A 
ATOM     15  C   UNL     1      37.705  27.685  53.354  1.00  0.00     0.027 A 
ATOM     16  C   UNL     1      36.905  28.763  53.761  1.00  0.00     0.003 A 
ATOM     17  H   UNL     1      39.712  25.604  53.402  1.00  0.00     0.166 HD
ENDROOT
BRANCH   7  18
ATOM     18  C   UNL     1      37.805  32.604  59.137  1.00  0.00     0.230 C 
ATOM     19  O   UNL     1      38.291  33.269  58.210  1.00  0.00    -0.274 OA
ATOM     20  N   UNL     1      37.038  33.224  60.121  1.00  0.00    -0.343 N 
BRANCH  20  21
ATOM     21  C   UNL     1      36.782  34.660  59.965  1.00  0.00     0.116 C 
ATOM     22  C   UNL     1      37.142  35.434  61.224  1.00  0.00     0.027 C 
ENDBRANCH  20  21
BRANCH  20  23
ATOM     23  C   UNL     1      36.439  32.585  61.297  1.00  0.00     0.116 C 
ATOM     24  C   UNL     1      34.961  32.278  61.097  1.00  0.00     0.027 C 
ENDBRANCH  20  23
ENDBRANCH   7  18
BRANCH   1  25
ATOM     25  C   UNL     1      39.108  28.437  60.278  1.00  0.00     0.085 C 
BRANCH  25  26
ATOM     26  C   UNL     1      39.490  28.522  61.766  1.00  0.00     0.012 C 
ATOM     27  C   UNL     1      40.995  28.508  62.001  1.00  0.00     0.005 C 
ENDBRANCH  25  26
ENDBRANCH   1  25
TORSDOF 5
ENDMDL
MODEL 8
REMARK VINA RESULT:    -7.991      2.260      7.828
REMARK INTER + INTRA:         -11.005
REMARK INTER:                 -10.252
REMARK INTRA:                  -0.753
REMARK UNBOUND:                -0.679
REMARK SMILES CCCN1C[C@H](C(=O)N(CC)CC)C=C2c3cccc4[nH]cc(c34)C[C@H]21
REMARK SMILES IDX 4 1 21 2 26 3 15 4 25 5 5 6 6 7 23 8 16 9 14 10 24 11 20 12
REMARK SMILES IDX 22 13 17 14 19 15 18 16 7 18 8 19 9 20 10 21 11 22 12 23
REMARK SMILES IDX 13 24 3 25 2 26 1 27
REMARK H PARENT 21 17
ROOT
ATOM      1  N   UNL     1      39.296  30.800  56.457  1.00  0.00    -0.295 NA
ATOM      2  N   UNL     1      37.282  34.612  60.694  1.00  0.00    -0.361 N 
ATOM      3  C   UNL     1      38.781  31.370  57.748  1.00  0.00     0.091 C 
ATOM      4  C   UNL     1      37.481  30.677  58.282  1.00  0.00    -0.026 C 
ATOM      5  C   UNL     1      38.764  32.944  57.756  1.00  0.00     0.061 C 
ATOM      6  C   UNL     1      39.305  29.324  56.558  1.00  0.00     0.102 C 
ATOM      7  C   UNL     1      37.915  28.710  56.809  1.00  0.00     0.116 C 
ATOM      8  C   UNL     1      38.111  33.463  58.987  1.00  0.00    -0.020 A 
ATOM      9  C   UNL     1      36.753  31.346  59.390  1.00  0.00    -0.011 A 
ATOM     10  C   UNL     1      37.088  29.475  57.810  1.00  0.00    -0.007 C 
ATOM     11  C   UNL     1      37.168  32.658  59.662  1.00  0.00     0.010 A 
ATOM     12  C   UNL     1      36.640  33.392  60.713  1.00  0.00     0.046 A 
ATOM     13  C   UNL     1      38.173  34.669  59.646  1.00  0.00     0.087 A 
ATOM     14  C   UNL     1      35.754  30.815  60.221  1.00  0.00     0.009 A 
ATOM     15  C   UNL     1      35.651  32.871  61.548  1.00  0.00     0.027 A 
ATOM     16  C   UNL     1      35.215  31.567  61.274  1.00  0.00     0.003 A 
ATOM     17  H   UNL     1      37.104  35.363  61.346  1.00  0.00     0.166 HD
ENDROOT
BRANCH   7  18
ATOM     18  C   UNL     1      38.037  27.202  57.097  1.00  0.00     0.230 C 
ATOM     19  O   UNL     1      38.236  26.858  58.271  1.00  0.00    -0.274 OA
ATOM     20  N   UNL     1      37.886  26.243  56.098  1.00  0.00    -0.343 N 
BRANCH  20  21
ATOM     21  C   UNL     1      37.901  24.836  56.513  1.00  0.00     0.116 C 
ATOM     22  C   UNL     1      37.008  23.981  55.626  1.00  0.00     0.027 C 
ENDBRANCH  20  21
BRANCH  20  23
ATOM     23  C   UNL     1      37.692  26.492  54.666  1.00  0.00     0.116 C 
ATOM     24  C   UNL     1      39.011  26.673  53.928  1.00  0.00     0.027 C 
ENDBRANCH  20  23
ENDBRANCH   7  18
BRANCH   1  25
ATOM     25  C   UNL     1      38.574  31.292  55.268  1.00  0.00     0.085 C 
BRANCH  25  26
ATOM     26  C   UNL     1      38.566  30.353  54.050  1.00  0.00     0.012 C 
ATOM     27  C   UNL     1      39.748  30.571  53.116  1.00  0.00     0.005 C 
ENDBRANCH  25  26
ENDBRANCH   1  25
TORSDOF 5
ENDMDL
MODEL 9
REMARK VINA RESULT:    -7.938      3.059      7.459
REMARK INTER + INTRA:         -10.937
REMARK INTER:                 -10.432
REMARK INTRA:                  -0.505
REMARK UNBOUND:                -0.679
REMARK SMILES CCCN1C[C@H](C(=O)N(CC)CC)C=C2c3cccc4[nH]cc(c34)C[C@H]21
REMARK SMILES IDX 4 1 21 2 26 3 15 4 25 5 5 6 6 7 23 8 16 9 14 10 24 11 20 12
REMARK SMILES IDX 22 13 17 14 19 15 18 16 7 18 8 19 9 20 10 21 11 22 12 23
REMARK SMILES IDX 13 24 3 25 2 26 1 27
REMARK H PARENT 21 17
ROOT
ATOM      1  N   UNL     1      38.777  34.145  59.997  1.00  0.00    -0.295 NA
ATOM      2  N   UNL     1      42.425  34.073  64.816  1.00  0.00    -0.361 N 
ATOM      3  C   UNL     1      39.737  33.704  61.064  1.00  0.00     0.091 C 
ATOM      4  C   UNL     1      39.276  32.434  61.858  1.00  0.00    -0.026 C 
ATOM      5  C   UNL     1      40.268  34.900  61.939  1.00  0.00     0.061 C 
ATOM      6  C   UNL     1      38.362  32.962  59.210  1.00  0.00     0.102 C 
ATOM      7  C   UNL     1      37.657  31.877  60.044  1.00  0.00     0.116 C 
ATOM      8  C   UNL     1      41.095  34.404  63.072  1.00  0.00    -0.020 A 
ATOM      9  C   UNL     1      40.018  32.095  63.099  1.00  0.00    -0.011 A 
ATOM     10  C   UNL     1      38.296  31.635  61.387  1.00  0.00    -0.007 C 
ATOM     11  C   UNL     1      40.886  33.096  63.560  1.00  0.00     0.010 A 
ATOM     12  C   UNL     1      41.706  32.907  64.663  1.00  0.00     0.046 A 
ATOM     13  C   UNL     1      42.058  34.992  63.858  1.00  0.00     0.087 A 
ATOM     14  C   UNL     1      39.999  30.894  63.824  1.00  0.00     0.009 A 
ATOM     15  C   UNL     1      41.698  31.714  65.387  1.00  0.00     0.027 A 
ATOM     16  C   UNL     1      40.821  30.713  64.946  1.00  0.00     0.003 A 
ATOM     17  H   UNL     1      43.110  34.233  65.542  1.00  0.00     0.166 HD
ENDROOT
BRANCH   7  18
ATOM     18  C   UNL     1      37.438  30.607  59.200  1.00  0.00     0.230 C 
ATOM     19  O   UNL     1      36.353  30.489  58.613  1.00  0.00    -0.274 OA
ATOM     20  N   UNL     1      38.428  29.638  59.050  1.00  0.00    -0.343 N 
BRANCH  20  21
ATOM     21  C   UNL     1      38.151  28.535  58.125  1.00  0.00     0.116 C 
ATOM     22  C   UNL     1      39.133  28.518  56.963  1.00  0.00     0.027 C 
ENDBRANCH  20  21
BRANCH  20  23
ATOM     23  C   UNL     1      39.737  29.614  59.711  1.00  0.00     0.116 C 
ATOM     24  C   UNL     1      39.878  28.441  60.672  1.00  0.00     0.027 C 
ENDBRANCH  20  23
ENDBRANCH   7  18
BRANCH   1  25
ATOM     25  C   UNL     1      37.634  34.918  60.520  1.00  0.00     0.085 C 
BRANCH  25  26
ATOM     26  C   UNL     1      36.843  35.733  59.482  1.00  0.00     0.012 C 
ATOM     27  C   UNL     1      37.216  37.209  59.465  1.00  0.00     0.005 C 
ENDBRANCH  25  26
ENDBRANCH   1  25
TORSDOF 5
ENDMDL
MODEL 10
REMARK VINA RESULT:    -7.926      3.004      5.987
REMARK INTER + INTRA:         -10.921
REMARK INTER:                 -10.909
REMARK INTRA:                  -0.012
REMARK UNBOUND:                -0.679
REMARK SMILES CCCN1C[C@H](C(=O)N(CC)CC)C=C2c3cccc4[nH]cc(c34)C[C@H]21
REMARK SMILES IDX 4 1 21 2 26 3 15 4 25 5 5 6 6 7 23 8 16 9 14 10 24 11 20 12
REMARK SMILES IDX 22 13 17 14 19 15 18 16 7 18 8 19 9 20 10 21 11 22 12 23
REMARK SMILES IDX 13 24 3 25 2 26 1 27
REMARK H PARENT 21 17
ROOT
ATOM      1  N   UNL     1      37.915  32.354  60.208  1.00  0.00    -0.295 NA
ATOM      2  N   UNL     1      41.805  30.895  64.599  1.00  0.00    -0.361 N 
ATOM      3  C   UNL     1      38.734  32.377  61.466  1.00  0.00     0.091 C 
ATOM      4  C   UNL     1      39.586  33.679  61.654  1.00  0.00    -0.026 C 
ATOM      5  C   UNL     1      39.494  31.023  61.725  1.00  0.00     0.061 C 
ATOM      6  C   UNL     1      37.216  33.651  60.069  1.00  0.00     0.102 C 
ATOM      7  C   UNL     1      38.165  34.861  59.978  1.00  0.00     0.116 C 
ATOM      8  C   UNL     1      40.405  31.140  62.895  1.00  0.00    -0.020 A 
ATOM      9  C   UNL     1      40.626  33.672  62.715  1.00  0.00    -0.011 A 
ATOM     10  C   UNL     1      39.328  34.791  60.934  1.00  0.00    -0.007 C 
ATOM     11  C   UNL     1      40.903  32.410  63.261  1.00  0.00     0.010 A 
ATOM     12  C   UNL     1      41.792  32.243  64.311  1.00  0.00     0.046 A 
ATOM     13  C   UNL     1      40.970  30.214  63.740  1.00  0.00     0.087 A 
ATOM     14  C   UNL     1      41.314  34.763  63.267  1.00  0.00     0.009 A 
ATOM     15  C   UNL     1      42.477  33.322  64.872  1.00  0.00     0.027 A 
ATOM     16  C   UNL     1      42.222  34.586  64.321  1.00  0.00     0.003 A 
ATOM     17  H   UNL     1      42.365  30.469  65.324  1.00  0.00     0.166 HD
ENDROOT
BRANCH   7  18
ATOM     18  C   UNL     1      37.366  36.176  60.036  1.00  0.00     0.230 C 
ATOM     19  O   UNL     1      36.560  36.398  59.120  1.00  0.00    -0.274 OA
ATOM     20  N   UNL     1      37.493  37.073  61.094  1.00  0.00    -0.343 N 
BRANCH  20  21
ATOM     21  C   UNL     1      36.592  38.231  61.103  1.00  0.00     0.116 C 
ATOM     22  C   UNL     1      35.879  38.376  62.439  1.00  0.00     0.027 C 
ENDBRANCH  20  21
BRANCH  20  23
ATOM     23  C   UNL     1      38.427  36.974  62.220  1.00  0.00     0.116 C 
ATOM     24  C   UNL     1      39.531  38.020  62.149  1.00  0.00     0.027 C 
ENDBRANCH  20  23
ENDBRANCH   7  18
BRANCH   1  25
ATOM     25  C   UNL     1      38.693  31.987  59.009  1.00  0.00     0.085 C 
BRANCH  25  26
ATOM     26  C   UNL     1      38.218  30.732  58.257  1.00  0.00     0.012 C 
ATOM     27  C   UNL     1      37.102  29.987  58.977  1.00  0.00     0.005 C 
ENDBRANCH  25  26
ENDBRANCH   1  25
TORSDOF 5
ENDMDL
MODEL 11
REMARK VINA RESULT:    -7.883      2.571      6.984
REMARK INTER + INTRA:         -10.866
REMARK INTER:                 -10.212
REMARK INTRA:                  -0.655
REMARK UNBOUND:                -0.679
REMARK SMILES CCCN1C[C@H](C(=O)N(CC)CC)C=C2c3cccc4[nH]cc(c34)C[C@H]21
REMARK SMILES IDX 4 1 21 2 26 3 15 4 25 5 5 6 6 7 23 8 16 9 14 10 24 11 20 12
REMARK SMILES IDX 22 13 17 14 19 15 18 16 7 18 8 19 9 20 10 21 11 22 12 23
REMARK SMILES IDX 13 24 3 25 2 26 1 27
REMARK H PARENT 21 17
ROOT
ATOM      1  N   UNL     1      36.453  32.344  59.605  1.00  0.00    -0.295 NA
ATOM      2  N   UNL     1      38.833  37.491  61.700  1.00  0.00    -0.361 N 
ATOM      3  C   UNL     1      37.403  33.467  59.911  1.00  0.00     0.091 C 
ATOM      4  C   UNL     1      38.745  33.010  60.578  1.00  0.00    -0.026 C 
ATOM      5  C   UNL     1      36.693  34.700  60.585  1.00  0.00     0.061 C 
ATOM      6  C   UNL     1      37.203  31.251  58.947  1.00  0.00     0.102 C 
ATOM      7  C   UNL     1      38.340  30.671  59.809  1.00  0.00     0.116 C 
ATOM      8  C   UNL     1      37.688  35.723  61.004  1.00  0.00    -0.020 A 
ATOM      9  C   UNL     1      39.615  34.063  61.161  1.00  0.00    -0.011 A 
ATOM     10  C   UNL     1      39.133  31.718  60.549  1.00  0.00    -0.007 C 
ATOM     11  C   UNL     1      39.015  35.326  61.278  1.00  0.00     0.010 A 
ATOM     12  C   UNL     1      39.716  36.432  61.732  1.00  0.00     0.046 A 
ATOM     13  C   UNL     1      37.596  37.070  61.265  1.00  0.00     0.087 A 
ATOM     14  C   UNL     1      40.958  33.964  61.552  1.00  0.00     0.009 A 
ATOM     15  C   UNL     1      41.054  36.346  62.118  1.00  0.00     0.027 A 
ATOM     16  C   UNL     1      41.658  35.084  62.024  1.00  0.00     0.003 A 
ATOM     17  H   UNL     1      39.060  38.436  61.978  1.00  0.00     0.166 HD
ENDROOT
BRANCH   7  18
ATOM     18  C   UNL     1      39.190  29.686  58.985  1.00  0.00     0.230 C 
ATOM     19  O   UNL     1      39.329  29.922  57.776  1.00  0.00    -0.274 OA
ATOM     20  N   UNL     1      39.827  28.592  59.567  1.00  0.00    -0.343 N 
BRANCH  20  21
ATOM     21  C   UNL     1      40.708  27.795  58.707  1.00  0.00     0.116 C 
ATOM     22  C   UNL     1      39.970  26.619  58.084  1.00  0.00     0.027 C 
ENDBRANCH  20  21
BRANCH  20  23
ATOM     23  C   UNL     1      39.723  28.159  60.964  1.00  0.00     0.116 C 
ATOM     24  C   UNL     1      40.893  28.646  61.808  1.00  0.00     0.027 C 
ENDBRANCH  20  23
ENDBRANCH   7  18
BRANCH   1  25
ATOM     25  C   UNL     1      35.685  31.890  60.781  1.00  0.00     0.085 C 
BRANCH  25  26
ATOM     26  C   UNL     1      34.275  32.484  60.932  1.00  0.00     0.012 C 
ATOM     27  C   UNL     1      33.685  32.976  59.617  1.00  0.00     0.005 C 
ENDBRANCH  25  26
ENDBRANCH   1  25
TORSDOF 5
ENDMDL
MODEL 12
REMARK VINA RESULT:    -7.864      3.395      7.635
REMARK INTER + INTRA:         -10.841
REMARK INTER:                 -10.023
REMARK INTRA:                  -0.818
REMARK UNBOUND:                -0.679
REMARK SMILES CCCN1C[C@H](C(=O)N(CC)CC)C=C2c3cccc4[nH]cc(c34)C[C@H]21
REMARK SMILES IDX 4 1 21 2 26 3 15 4 25 5 5 6 6 7 23 8 16 9 14 10 24 11 20 12
REMARK SMILES IDX 22 13 17 14 19 15 18 16 7 18 8 19 9 20 10 21 11 22 12 23
REMARK SMILES IDX 13 24 3 25 2 26 1 27
REMARK H PARENT 21 17
ROOT
ATOM      1  N   UNL     1      41.249  27.358  58.330  1.00  0.00    -0.295 NA
ATOM      2  N   UNL     1      39.094  30.593  62.959  1.00  0.00    -0.361 N 
ATOM      3  C   UNL     1      40.334  28.114  59.250  1.00  0.00     0.091 C 
ATOM      4  C   UNL     1      39.534  29.268  58.555  1.00  0.00    -0.026 C 
ATOM      5  C   UNL     1      41.018  28.488  60.618  1.00  0.00     0.061 C 
ATOM      6  C   UNL     1      40.511  27.024  57.092  1.00  0.00     0.102 C 
ATOM      7  C   UNL     1      40.000  28.256  56.322  1.00  0.00     0.116 C 
ATOM      8  C   UNL     1      40.132  29.360  61.434  1.00  0.00    -0.020 A 
ATOM      9  C   UNL     1      38.825  30.235  59.431  1.00  0.00    -0.011 A 
ATOM     10  C   UNL     1      39.427  29.330  57.211  1.00  0.00    -0.007 C 
ATOM     11  C   UNL     1      39.162  30.158  60.790  1.00  0.00     0.010 A 
ATOM     12  C   UNL     1      38.534  30.939  61.748  1.00  0.00     0.046 A 
ATOM     13  C   UNL     1      40.071  29.638  62.780  1.00  0.00     0.087 A 
ATOM     14  C   UNL     1      37.834  31.164  59.078  1.00  0.00     0.009 A 
ATOM     15  C   UNL     1      37.543  31.862  61.409  1.00  0.00     0.027 A 
ATOM     16  C   UNL     1      37.212  31.961  60.050  1.00  0.00     0.003 A 
ATOM     17  H   UNL     1      38.836  30.999  63.848  1.00  0.00     0.166 HD
ENDROOT
BRANCH   7  18
ATOM     18  C   UNL     1      39.080  27.824  55.165  1.00  0.00     0.230 C 
ATOM     19  O   UNL     1      38.485  26.743  55.280  1.00  0.00    -0.274 OA
ATOM     20  N   UNL     1      38.873  28.626  54.044  1.00  0.00    -0.343 N 
BRANCH  20  21
ATOM     21  C   UNL     1      37.882  28.166  53.066  1.00  0.00     0.116 C 
ATOM     22  C   UNL     1      38.534  27.778  51.748  1.00  0.00     0.027 C 
ENDBRANCH  20  21
BRANCH  20  23
ATOM     23  C   UNL     1      39.533  29.901  53.746  1.00  0.00     0.116 C 
ATOM     24  C   UNL     1      38.731  31.096  54.239  1.00  0.00     0.027 C 
ENDBRANCH  20  23
ENDBRANCH   7  18
BRANCH   1  25
ATOM     25  C   UNL     1      42.525  28.052  58.070  1.00  0.00     0.085 C 
BRANCH  25  26
ATOM     26  C   UNL     1      43.757  27.149  57.889  1.00  0.00     0.012 C 
ATOM     27  C   UNL     1      44.012  26.234  59.080  1.00  0.00     0.005 C 
ENDBRANCH  25  26
ENDBRANCH   1  25
TORSDOF 5
ENDMDL
MODEL 13
REMARK VINA RESULT:    -7.774      3.181      5.501
REMARK INTER + INTRA:         -10.724
REMARK INTER:                 -10.424
REMARK INTRA:                  -0.301
REMARK UNBOUND:                -0.679
REMARK SMILES CCCN1C[C@H](C(=O)N(CC)CC)C=C2c3cccc4[nH]cc(c34)C[C@H]21
REMARK SMILES IDX 4 1 21 2 26 3 15 4 25 5 5 6 6 7 23 8 16 9 14 10 24 11 20 12
REMARK SMILES IDX 22 13 17 14 19 15 18 16 7 18 8 19 9 20 10 21 11 22 12 23
REMARK SMILES IDX 13 24 3 25 2 26 1 27
REMARK H PARENT 21 17
ROOT
ATOM      1  N   UNL     1      38.225  30.154  59.603  1.00  0.00    -0.295 NA
ATOM      2  N   UNL     1      42.045  28.504  63.987  1.00  0.00    -0.361 N 
ATOM      3  C   UNL     1      38.991  30.098  60.894  1.00  0.00     0.091 C 
ATOM      4  C   UNL     1      39.733  31.429  61.259  1.00  0.00    -0.026 C 
ATOM      5  C   UNL     1      39.842  28.782  61.041  1.00  0.00     0.061 C 
ATOM      6  C   UNL     1      37.434  31.405  59.572  1.00  0.00     0.102 C 
ATOM      7  C   UNL     1      38.290  32.683  59.656  1.00  0.00     0.116 C 
ATOM      8  C   UNL     1      40.697  28.834  62.257  1.00  0.00    -0.020 A 
ATOM      9  C   UNL     1      40.729  31.379  62.360  1.00  0.00    -0.011 A 
ATOM     10  C   UNL     1      39.418  32.592  60.651  1.00  0.00    -0.007 C 
ATOM     11  C   UNL     1      41.081  30.088  62.779  1.00  0.00     0.010 A 
ATOM     12  C   UNL     1      41.940  29.871  63.846  1.00  0.00     0.046 A 
ATOM     13  C   UNL     1      41.298  27.863  63.023  1.00  0.00     0.087 A 
ATOM     14  C   UNL     1      41.309  32.449  63.057  1.00  0.00     0.009 A 
ATOM     15  C   UNL     1      42.518  30.928  64.550  1.00  0.00     0.027 A 
ATOM     16  C   UNL     1      42.187  32.224  64.127  1.00  0.00     0.003 A 
ATOM     17  H   UNL     1      42.608  28.041  64.688  1.00  0.00     0.166 HD
ENDROOT
BRANCH   7  18
ATOM     18  C   UNL     1      37.391  33.923  59.818  1.00  0.00     0.230 C 
ATOM     19  O   UNL     1      36.193  33.804  59.521  1.00  0.00    -0.274 OA
ATOM     20  N   UNL     1      37.875  35.128  60.322  1.00  0.00    -0.343 N 
BRANCH  20  21
ATOM     21  C   UNL     1      36.899  36.200  60.547  1.00  0.00     0.116 C 
ATOM     22  C   UNL     1      36.957  37.249  59.447  1.00  0.00     0.027 C 
ENDBRANCH  20  21
BRANCH  20  23
ATOM     23  C   UNL     1      39.265  35.435  60.674  1.00  0.00     0.116 C 
ATOM     24  C   UNL     1      39.384  36.082  62.047  1.00  0.00     0.027 C 
ENDBRANCH  20  23
ENDBRANCH   7  18
BRANCH   1  25
ATOM     25  C   UNL     1      39.074  29.980  58.409  1.00  0.00     0.085 C 
BRANCH  25  26
ATOM     26  C   UNL     1      38.340  29.985  57.057  1.00  0.00     0.012 C 
ATOM     27  C   UNL     1      38.820  31.083  56.117  1.00  0.00     0.005 C 
ENDBRANCH  25  26
ENDBRANCH   1  25
TORSDOF 5
ENDMDL
MODEL 14
REMARK VINA RESULT:    -7.709      2.741      4.379
REMARK INTER + INTRA:         -10.641
REMARK INTER:                  -9.824
REMARK INTRA:                  -0.817
REMARK UNBOUND:                -0.679
REMARK SMILES CCCN1C[C@H](C(=O)N(CC)CC)C=C2c3cccc4[nH]cc(c34)C[C@H]21
REMARK SMILES IDX 4 1 21 2 26 3 15 4 25 5 5 6 6 7 23 8 16 9 14 10 24 11 20 12
REMARK SMILES IDX 22 13 17 14 19 15 18 16 7 18 8 19 9 20 10 21 11 22 12 23
REMARK SMILES IDX 13 24 3 25 2 26 1 27
REMARK H PARENT 21 17
ROOT
ATOM      1  N   UNL     1      37.666  30.936  58.211  1.00  0.00    -0.295 NA
ATOM      2  N   UNL     1      37.452  27.514  53.233  1.00  0.00    -0.361 N 
ATOM      3  C   UNL     1      37.703  29.765  57.271  1.00  0.00     0.091 C 
ATOM      4  C   UNL     1      39.026  28.928  57.341  1.00  0.00    -0.026 C 
ATOM      5  C   UNL     1      37.203  30.129  55.824  1.00  0.00     0.061 C 
ATOM      6  C   UNL     1      38.120  30.490  59.547  1.00  0.00     0.102 C 
ATOM      7  C   UNL     1      39.556  29.933  59.561  1.00  0.00     0.116 C 
ATOM      8  C   UNL     1      37.396  28.987  54.891  1.00  0.00    -0.020 A 
ATOM      9  C   UNL     1      39.263  27.931  56.266  1.00  0.00    -0.011 A 
ATOM     10  C   UNL     1      39.874  29.050  58.383  1.00  0.00    -0.007 C 
ATOM     11  C   UNL     1      38.398  28.031  55.166  1.00  0.00     0.010 A 
ATOM     12  C   UNL     1      38.440  27.129  54.114  1.00  0.00     0.046 A 
ATOM     13  C   UNL     1      36.815  28.646  53.692  1.00  0.00     0.087 A 
ATOM     14  C   UNL     1      40.196  26.883  56.241  1.00  0.00     0.009 A 
ATOM     15  C   UNL     1      39.360  26.080  54.083  1.00  0.00     0.027 A 
ATOM     16  C   UNL     1      40.242  25.981  55.168  1.00  0.00     0.003 A 
ATOM     17  H   UNL     1      37.243  27.042  52.364  1.00  0.00     0.166 HD
ENDROOT
BRANCH   7  18
ATOM     18  C   UNL     1      39.878  29.312  60.934  1.00  0.00     0.230 C 
ATOM     19  O   UNL     1      39.550  28.131  61.119  1.00  0.00    -0.274 OA
ATOM     20  N   UNL     1      40.556  30.018  61.925  1.00  0.00    -0.343 N 
BRANCH  20  21
ATOM     21  C   UNL     1      40.915  29.284  63.143  1.00  0.00     0.116 C 
ATOM     22  C   UNL     1      42.084  29.937  63.866  1.00  0.00     0.027 C 
ENDBRANCH  20  21
BRANCH  20  23
ATOM     23  C   UNL     1      40.969  31.424  61.873  1.00  0.00     0.116 C 
ATOM     24  C   UNL     1      39.847  32.371  62.275  1.00  0.00     0.027 C 
ENDBRANCH  20  23
ENDBRANCH   7  18
BRANCH   1  25
ATOM     25  C   UNL     1      38.408  32.111  57.714  1.00  0.00     0.085 C 
BRANCH  25  26
ATOM     26  C   UNL     1      38.752  33.181  58.764  1.00  0.00     0.012 C 
ATOM     27  C   UNL     1      37.591  34.117  59.072  1.00  0.00     0.005 C 
ENDBRANCH  25  26
ENDBRANCH   1  25
TORSDOF 5
ENDMDL
MODEL 15
REMARK VINA RESULT:    -7.686      5.709      8.923
REMARK INTER + INTRA:         -10.612
REMARK INTER:                  -9.804
REMARK INTRA:                  -0.808
REMARK UNBOUND:                -0.679
REMARK SMILES CCCN1C[C@H](C(=O)N(CC)CC)C=C2c3cccc4[nH]cc(c34)C[C@H]21
REMARK SMILES IDX 4 1 21 2 26 3 15 4 25 5 5 6 6 7 23 8 16 9 14 10 24 11 20 12
REMARK SMILES IDX 22 13 17 14 19 15 18 16 7 18 8 19 9 20 10 21 11 22 12 23
REMARK SMILES IDX 13 24 3 25 2 26 1 27
REMARK H PARENT 21 17
ROOT
ATOM      1  N   UNL     1      42.158  32.860  65.970  1.00  0.00    -0.295 NA
ATOM      2  N   UNL     1      39.741  35.721  61.225  1.00  0.00    -0.361 N 
ATOM      3  C   UNL     1      41.266  33.235  64.821  1.00  0.00     0.091 C 
ATOM      4  C   UNL     1      41.070  32.096  63.762  1.00  0.00    -0.026 C 
ATOM      5  C   UNL     1      41.591  34.659  64.236  1.00  0.00     0.061 C 
ATOM      6  C   UNL     1      41.757  31.527  66.471  1.00  0.00     0.102 C 
ATOM      7  C   UNL     1      41.868  30.408  65.418  1.00  0.00     0.116 C 
ATOM      8  C   UNL     1      40.789  34.927  63.012  1.00  0.00    -0.020 A 
ATOM      9  C   UNL     1      40.439  32.462  62.469  1.00  0.00    -0.011 A 
ATOM     10  C   UNL     1      41.388  30.816  64.049  1.00  0.00    -0.007 C 
ATOM     11  C   UNL     1      40.321  33.841  62.240  1.00  0.00     0.010 A 
ATOM     12  C   UNL     1      39.687  34.347  61.115  1.00  0.00     0.046 A 
ATOM     13  C   UNL     1      40.413  36.084  62.371  1.00  0.00     0.087 A 
ATOM     14  C   UNL     1      39.904  31.612  61.490  1.00  0.00     0.009 A 
ATOM     15  C   UNL     1      39.147  33.510  60.138  1.00  0.00     0.027 A 
ATOM     16  C   UNL     1      39.275  32.130  60.348  1.00  0.00     0.003 A 
ATOM     17  H   UNL     1      39.358  36.365  60.547  1.00  0.00     0.166 HD
ENDROOT
BRANCH   7  18
ATOM     18  C   UNL     1      41.250  29.103  65.952  1.00  0.00     0.230 C 
ATOM     19  O   UNL     1      40.345  29.201  66.794  1.00  0.00    -0.274 OA
ATOM     20  N   UNL     1      41.644  27.851  65.485  1.00  0.00    -0.343 N 
BRANCH  20  21
ATOM     21  C   UNL     1      40.899  26.687  65.977  1.00  0.00     0.116 C 
ATOM     22  C   UNL     1      41.055  25.490  65.051  1.00  0.00     0.027 C 
ENDBRANCH  20  21
BRANCH  20  23
ATOM     23  C   UNL     1      42.721  27.572  64.530  1.00  0.00     0.116 C 
ATOM     24  C   UNL     1      44.100  27.678  65.168  1.00  0.00     0.027 C 
ENDBRANCH  20  23
ENDBRANCH   7  18
BRANCH   1  25
ATOM     25  C   UNL     1      43.596  32.946  65.648  1.00  0.00     0.085 C 
BRANCH  25  26
ATOM     26  C   UNL     1      44.553  32.322  66.678  1.00  0.00     0.012 C 
ATOM     27  C   UNL     1      45.546  31.346  66.062  1.00  0.00     0.005 C 
ENDBRANCH  25  26
ENDBRANCH   1  25
TORSDOF 5
ENDMDL
MODEL 16
REMARK VINA RESULT:    -7.664      3.658      5.189
REMARK INTER + INTRA:         -10.582
REMARK INTER:                  -9.530
REMARK INTRA:                  -1.052
REMARK UNBOUND:                -0.679
REMARK SMILES CCCN1C[C@H](C(=O)N(CC)CC)C=C2c3cccc4[nH]cc(c34)C[C@H]21
REMARK SMILES IDX 4 1 21 2 26 3 15 4 25 5 5 6 6 7 23 8 16 9 14 10 24 11 20 12
REMARK SMILES IDX 22 13 17 14 19 15 18 16 7 18 8 19 9 20 10 21 11 22 12 23
REMARK SMILES IDX 13 24 3 25 2 26 1 27
REMARK H PARENT 21 17
ROOT
ATOM      1  N   UNL     1      38.692  31.204  61.010  1.00  0.00    -0.295 NA
ATOM      2  N   UNL     1      37.694  28.906  55.508  1.00  0.00    -0.361 N 
ATOM      3  C   UNL     1      38.559  30.256  59.852  1.00  0.00     0.091 C 
ATOM      4  C   UNL     1      39.843  29.404  59.568  1.00  0.00    -0.026 C 
ATOM      5  C   UNL     1      37.891  30.922  58.592  1.00  0.00     0.061 C 
ATOM      6  C   UNL     1      39.296  30.481  62.151  1.00  0.00     0.102 C 
ATOM      7  C   UNL     1      40.697  29.914  61.856  1.00  0.00     0.116 C 
ATOM      8  C   UNL     1      37.915  29.998  57.427  1.00  0.00    -0.020 A 
ATOM      9  C   UNL     1      39.898  28.652  58.289  1.00  0.00    -0.011 A 
ATOM     10  C   UNL     1      40.824  29.294  60.489  1.00  0.00    -0.007 C 
ATOM     11  C   UNL     1      38.903  28.992  57.361  1.00  0.00     0.010 A 
ATOM     12  C   UNL     1      38.771  28.330  56.149  1.00  0.00     0.046 A 
ATOM     13  C   UNL     1      37.170  29.924  56.273  1.00  0.00     0.087 A 
ATOM     14  C   UNL     1      40.776  27.620  57.923  1.00  0.00     0.009 A 
ATOM     15  C   UNL     1      39.635  27.299  55.779  1.00  0.00     0.027 A 
ATOM     16  C   UNL     1      40.645  26.963  56.691  1.00  0.00     0.003 A 
ATOM     17  H   UNL     1      37.355  28.629  54.597  1.00  0.00     0.166 HD
ENDROOT
BRANCH   7  18
ATOM     18  C   UNL     1      41.168  29.014  63.014  1.00  0.00     0.230 C 
ATOM     19  O   UNL     1      40.890  27.808  62.952  1.00  0.00    -0.274 OA
ATOM     20  N   UNL     1      41.920  29.509  64.077  1.00  0.00    -0.343 N 
BRANCH  20  21
ATOM     21  C   UNL     1      42.416  28.537  65.057  1.00  0.00     0.116 C 
ATOM     22  C   UNL     1      43.935  28.552  65.142  1.00  0.00     0.027 C 
ENDBRANCH  20  21
BRANCH  20  23
ATOM     23  C   UNL     1      42.289  30.909  64.313  1.00  0.00     0.116 C 
ATOM     24  C   UNL     1      41.244  31.651  65.135  1.00  0.00     0.027 C 
ENDBRANCH  20  23
ENDBRANCH   7  18
BRANCH   1  25
ATOM     25  C   UNL     1      39.411  32.447  60.670  1.00  0.00     0.085 C 
BRANCH  25  26
ATOM     26  C   UNL     1      39.719  33.387  61.847  1.00  0.00     0.012 C 
ATOM     27  C   UNL     1      41.193  33.754  61.954  1.00  0.00     0.005 C 
ENDBRANCH  25  26
ENDBRANCH   1  25
TORSDOF 5
ENDMDL
MODEL 17
REMARK VINA RESULT:    -7.649      4.918      6.934
REMARK INTER + INTRA:         -10.563
REMARK INTER:                  -9.709
REMARK INTRA:                  -0.854
REMARK UNBOUND:                -0.679
REMARK SMILES CCCN1C[C@H](C(=O)N(CC)CC)C=C2c3cccc4[nH]cc(c34)C[C@H]21
REMARK SMILES IDX 4 1 21 2 26 3 15 4 25 5 5 6 6 7 23 8 16 9 14 10 24 11 20 12
REMARK SMILES IDX 22 13 17 14 19 15 18 16 7 18 8 19 9 20 10 21 11 22 12 23
REMARK SMILES IDX 13 24 3 25 2 26 1 27
REMARK H PARENT 21 17
ROOT
ATOM      1  N   UNL     1      40.529  32.717  63.592  1.00  0.00    -0.295 NA
ATOM      2  N   UNL     1      37.220  30.942  58.856  1.00  0.00    -0.361 N 
ATOM      3  C   UNL     1      39.707  31.893  62.644  1.00  0.00     0.091 C 
ATOM      4  C   UNL     1      40.391  30.557  62.194  1.00  0.00    -0.026 C 
ATOM      5  C   UNL     1      39.063  32.750  61.491  1.00  0.00     0.061 C 
ATOM      6  C   UNL     1      41.062  31.834  64.654  1.00  0.00     0.102 C 
ATOM      7  C   UNL     1      41.963  30.702  64.126  1.00  0.00     0.116 C 
ATOM      8  C   UNL     1      38.384  31.878  60.496  1.00  0.00    -0.020 A 
ATOM      9  C   UNL     1      39.780  29.822  61.057  1.00  0.00    -0.011 A 
ATOM     10  C   UNL     1      41.445  30.053  62.868  1.00  0.00    -0.007 C 
ATOM     11  C   UNL     1      38.806  30.540  60.346  1.00  0.00     0.010 A 
ATOM     12  C   UNL     1      38.089  29.970  59.305  1.00  0.00     0.046 A 
ATOM     13  C   UNL     1      37.395  32.108  59.568  1.00  0.00     0.087 A 
ATOM     14  C   UNL     1      40.014  28.501  60.648  1.00  0.00     0.009 A 
ATOM     15  C   UNL     1      38.310  28.655  58.895  1.00  0.00     0.027 A 
ATOM     16  C   UNL     1      39.294  27.934  59.587  1.00  0.00     0.003 A 
ATOM     17  H   UNL     1      36.564  30.818  58.097  1.00  0.00     0.166 HD
ENDROOT
BRANCH   7  18
ATOM     18  C   UNL     1      42.311  29.719  65.259  1.00  0.00     0.230 C 
ATOM     19  O   UNL     1      41.426  28.933  65.627  1.00  0.00    -0.274 OA
ATOM     20  N   UNL     1      43.581  29.666  65.829  1.00  0.00    -0.343 N 
BRANCH  20  21
ATOM     21  C   UNL     1      43.830  28.608  66.814  1.00  0.00     0.116 C 
ATOM     22  C   UNL     1      44.615  27.454  66.209  1.00  0.00     0.027 C 
ENDBRANCH  20  21
BRANCH  20  23
ATOM     23  C   UNL     1      44.712  30.553  65.534  1.00  0.00     0.116 C 
ATOM     24  C   UNL     1      44.722  31.791  66.419  1.00  0.00     0.027 C 
ENDBRANCH  20  23
ENDBRANCH   7  18
BRANCH   1  25
ATOM     25  C   UNL     1      41.579  33.509  62.922  1.00  0.00     0.085 C 
BRANCH  25  26
ATOM     26  C   UNL     1      41.526  35.029  63.156  1.00  0.00     0.012 C 
ATOM     27  C   UNL     1      41.040  35.808  61.941  1.00  0.00     0.005 C 
ENDBRANCH  25  26
ENDBRANCH   1  25
TORSDOF 5
ENDMDL
MODEL 18
REMARK VINA RESULT:    -7.647      3.491      6.199
REMARK INTER + INTRA:         -10.561
REMARK INTER:                  -9.979
REMARK INTRA:                  -0.581
REMARK UNBOUND:                -0.679
REMARK SMILES CCCN1C[C@H](C(=O)N(CC)CC)C=C2c3cccc4[nH]cc(c34)C[C@H]21
REMARK SMILES IDX 4 1 21 2 26 3 15 4 25 5 5 6 6 7 23 8 16 9 14 10 24 11 20 12
REMARK SMILES IDX 22 13 17 14 19 15 18 16 7 18 8 19 9 20 10 21 11 22 12 23
REMARK SMILES IDX 13 24 3 25 2 26 1 27
REMARK H PARENT 21 17
ROOT
ATOM      1  N   UNL     1      38.437  33.082  60.729  1.00  0.00    -0.295 NA
ATOM      2  N   UNL     1      42.198  29.811  64.149  1.00  0.00    -0.361 N 
ATOM      3  C   UNL     1      39.260  32.579  61.880  1.00  0.00     0.091 C 
ATOM      4  C   UNL     1      40.226  33.648  62.496  1.00  0.00    -0.026 C 
ATOM      5  C   UNL     1      39.897  31.166  61.603  1.00  0.00     0.061 C 
ATOM      6  C   UNL     1      37.857  34.393  61.095  1.00  0.00     0.102 C 
ATOM      7  C   UNL     1      38.909  35.471  61.415  1.00  0.00     0.116 C 
ATOM      8  C   UNL     1      40.819  30.774  62.702  1.00  0.00    -0.020 A 
ATOM      9  C   UNL     1      41.264  33.170  63.444  1.00  0.00    -0.011 A 
ATOM     10  C   UNL     1      40.065  34.963  62.237  1.00  0.00    -0.007 C 
ATOM     11  C   UNL     1      41.429  31.778  63.485  1.00  0.00     0.010 A 
ATOM     12  C   UNL     1      42.304  31.168  64.371  1.00  0.00     0.046 A 
ATOM     13  C   UNL     1      41.302  29.561  63.133  1.00  0.00     0.087 A 
ATOM     14  C   UNL     1      42.049  33.925  64.329  1.00  0.00     0.009 A 
ATOM     15  C   UNL     1      43.085  31.909  65.259  1.00  0.00     0.027 A 
ATOM     16  C   UNL     1      42.941  33.303  65.214  1.00  0.00     0.003 A 
ATOM     17  H   UNL     1      42.720  29.106  64.650  1.00  0.00     0.166 HD
ENDROOT
BRANCH   7  18
ATOM     18  C   UNL     1      38.231  36.736  61.974  1.00  0.00     0.230 C 
ATOM     19  O   UNL     1      38.179  36.861  63.206  1.00  0.00    -0.274 OA
ATOM     20  N   UNL     1      37.730  37.736  61.144  1.00  0.00    -0.343 N 
BRANCH  20  21
ATOM     21  C   UNL     1      37.217  38.949  61.790  1.00  0.00     0.116 C 
ATOM     22  C   UNL     1      35.746  38.812  62.152  1.00  0.00     0.027 C 
ENDBRANCH  20  21
BRANCH  20  23
ATOM     23  C   UNL     1      37.678  37.714  59.678  1.00  0.00     0.116 C 
ATOM     24  C   UNL     1      36.509  36.891  59.154  1.00  0.00     0.027 C 
ENDBRANCH  20  23
ENDBRANCH   7  18
BRANCH   1  25
ATOM     25  C   UNL     1      39.175  33.115  59.451  1.00  0.00     0.085 C 
BRANCH  25  26
ATOM     26  C   UNL     1      38.347  33.481  58.207  1.00  0.00     0.012 C 
ATOM     27  C   UNL     1      38.818  32.775  56.943  1.00  0.00     0.005 C 
ENDBRANCH  25  26
ENDBRANCH   1  25
TORSDOF 5
ENDMDL
MODEL 19
REMARK VINA RESULT:    -7.637      3.047      7.048
REMARK INTER + INTRA:         -10.547
REMARK INTER:                  -9.906
REMARK INTRA:                  -0.641
REMARK UNBOUND:                -0.679
REMARK SMILES CCCN1C[C@H](C(=O)N(CC)CC)C=C2c3cccc4[nH]cc(c34)C[C@H]21
REMARK SMILES IDX 4 1 21 2 26 3 15 4 25 5 5 6 6 7 23 8 16 9 14 10 24 11 20 12
REMARK SMILES IDX 22 13 17 14 19 15 18 16 7 18 8 19 9 20 10 21 11 22 12 23
REMARK SMILES IDX 13 24 3 25 2 26 1 27
REMARK H PARENT 21 17
ROOT
ATOM      1  N   UNL     1      38.457  32.856  59.521  1.00  0.00    -0.295 NA
ATOM      2  N   UNL     1      41.498  31.516  64.570  1.00  0.00    -0.361 N 
ATOM      3  C   UNL     1      39.436  32.261  60.492  1.00  0.00     0.091 C 
ATOM      4  C   UNL     1      39.449  30.694  60.511  1.00  0.00    -0.026 C 
ATOM      5  C   UNL     1      39.397  32.959  61.903  1.00  0.00     0.061 C 
ATOM      6  C   UNL     1      38.591  32.160  58.222  1.00  0.00     0.102 C 
ATOM      7  C   UNL     1      38.306  30.649  58.294  1.00  0.00     0.116 C 
ATOM      8  C   UNL     1      40.269  32.246  62.873  1.00  0.00    -0.020 A 
ATOM      9  C   UNL     1      40.176  30.028  61.623  1.00  0.00    -0.011 A 
ATOM     10  C   UNL     1      38.893  29.980  59.511  1.00  0.00    -0.007 C 
ATOM     11  C   UNL     1      40.551  30.877  62.674  1.00  0.00     0.010 A 
ATOM     12  C   UNL     1      41.301  30.426  63.750  1.00  0.00     0.046 A 
ATOM     13  C   UNL     1      40.871  32.627  64.050  1.00  0.00     0.087 A 
ATOM     14  C   UNL     1      40.573  28.687  61.722  1.00  0.00     0.009 A 
ATOM     15  C   UNL     1      41.706  29.095  63.855  1.00  0.00     0.027 A 
ATOM     16  C   UNL     1      41.320  28.233  62.819  1.00  0.00     0.003 A 
ATOM     17  H   UNL     1      42.013  31.494  65.439  1.00  0.00     0.166 HD
ENDROOT
BRANCH   7  18
ATOM     18  C   UNL     1      38.658  29.970  56.957  1.00  0.00     0.230 C 
ATOM     19  O   UNL     1      39.165  30.676  56.073  1.00  0.00    -0.274 OA
ATOM     20  N   UNL     1      38.466  28.607  56.746  1.00  0.00    -0.343 N 
BRANCH  20  21
ATOM     21  C   UNL     1      38.952  28.050  55.478  1.00  0.00     0.116 C 
ATOM     22  C   UNL     1      37.803  27.661  54.560  1.00  0.00     0.027 C 
ENDBRANCH  20  21
BRANCH  20  23
ATOM     23  C   UNL     1      37.842  27.656  57.671  1.00  0.00     0.116 C 
ATOM     24  C   UNL     1      38.790  26.535  58.075  1.00  0.00     0.027 C 
ENDBRANCH  20  23
ENDBRANCH   7  18
BRANCH   1  25
ATOM     25  C   UNL     1      37.070  32.875  60.024  1.00  0.00     0.085 C 
BRANCH  25  26
ATOM     26  C   UNL     1      36.340  34.226  59.932  1.00  0.00     0.012 C 
ATOM     27  C   UNL     1      37.270  35.391  59.618  1.00  0.00     0.005 C 
ENDBRANCH  25  26
ENDBRANCH   1  25
TORSDOF 5
ENDMDL
MODEL 20
REMARK VINA RESULT:    -7.602      5.041      7.417
REMARK INTER + INTRA:         -10.503
REMARK INTER:                  -9.759
REMARK INTRA:                  -0.744
REMARK UNBOUND:                -0.679
REMARK SMILES CCCN1C[C@H](C(=O)N(CC)CC)C=C2c3cccc4[nH]cc(c34)C[C@H]21
REMARK SMILES IDX 4 1 21 2 26 3 15 4 25 5 5 6 6 7 23 8 16 9 14 10 24 11 20 12
REMARK SMILES IDX 22 13 17 14 19 15 18 16 7 18 8 19 9 20 10 21 11 22 12 23
REMARK SMILES IDX 13 24 3 25 2 26 1 27
REMARK H PARENT 21 17
ROOT
ATOM      1  N   UNL     1      40.586  32.145  64.110  1.00  0.00    -0.295 NA
ATOM      2  N   UNL     1      37.845  31.512  58.760  1.00  0.00    -0.361 N 
ATOM      3  C   UNL     1      39.789  31.597  62.961  1.00  0.00     0.091 C 
ATOM      4  C   UNL     1      40.259  30.186  62.469  1.00  0.00    -0.026 C 
ATOM      5  C   UNL     1      39.536  32.663  61.831  1.00  0.00     0.061 C 
ATOM      6  C   UNL     1      40.742  31.086  65.131  1.00  0.00     0.102 C 
ATOM      7  C   UNL     1      41.476  29.833  64.618  1.00  0.00     0.116 C 
ATOM      8  C   UNL     1      38.876  32.040  60.652  1.00  0.00    -0.020 A 
ATOM      9  C   UNL     1      39.717  29.694  61.177  1.00  0.00    -0.011 A 
ATOM     10  C   UNL     1      41.061  29.413  63.232  1.00  0.00    -0.007 C 
ATOM     11  C   UNL     1      39.042  30.659  60.415  1.00  0.00     0.010 A 
ATOM     12  C   UNL     1      38.413  30.343  59.220  1.00  0.00     0.046 A 
ATOM     13  C   UNL     1      38.125  32.551  59.619  1.00  0.00     0.087 A 
ATOM     14  C   UNL     1      39.749  28.390  60.660  1.00  0.00     0.009 A 
ATOM     15  C   UNL     1      38.434  29.048  58.700  1.00  0.00     0.027 A 
ATOM     16  C   UNL     1      39.122  28.079  59.444  1.00  0.00     0.003 A 
ATOM     17  H   UNL     1      37.317  31.593  57.902  1.00  0.00     0.166 HD
ENDROOT
BRANCH   7  18
ATOM     18  C   UNL     1      41.423  28.710  65.671  1.00  0.00     0.230 C 
ATOM     19  O   UNL     1      40.624  28.842  66.610  1.00  0.00    -0.274 OA
ATOM     20  N   UNL     1      42.199  27.557  65.565  1.00  0.00    -0.343 N 
BRANCH  20  21
ATOM     21  C   UNL     1      41.973  26.504  66.560  1.00  0.00     0.116 C 
ATOM     22  C   UNL     1      41.072  25.404  66.017  1.00  0.00     0.027 C 
ENDBRANCH  20  21
BRANCH  20  23
ATOM     23  C   UNL     1      43.213  27.276  64.544  1.00  0.00     0.116 C 
ATOM     24  C   UNL     1      44.596  27.764  64.953  1.00  0.00     0.027 C 
ENDBRANCH  20  23
ENDBRANCH   7  18
BRANCH   1  25
ATOM     25  C   UNL     1      41.871  32.744  63.700  1.00  0.00     0.085 C 
BRANCH  25  26
ATOM     26  C   UNL     1      42.212  34.103  64.335  1.00  0.00     0.012 C 
ATOM     27  C   UNL     1      40.982  34.895  64.758  1.00  0.00     0.005 C 
ENDBRANCH  25  26
ENDBRANCH   1  25
TORSDOF 5
ENDMDL
