MODEL 1
REMARK VINA RESULT:    -9.529      0.000      0.000
REMARK INTER + INTRA:         -13.095
REMARK INTER:                 -12.315
REMARK INTRA:                  -0.780
REMARK UNBOUND:                -0.780
REMARK SMILES CCCN1C[C@H](C(=O)N(CC)CC)C=C2c3cccc4[nH]cc(c34)C[C@H]21
REMARK SMILES IDX 4 1 21 2 26 3 15 4 25 5 5 6 6 7 23 8 16 9 14 10 24 11 20 12
REMARK SMILES IDX 22 13 17 14 19 15 18 16 7 18 8 19 9 20 10 21 11 22 12 23
REMARK SMILES IDX 13 24 3 25 2 26 1 27
REMARK H PARENT 21 17
ROOT
ATOM      1  N   UNL     1     124.443 132.988 122.322  1.00  0.00    -0.295 NA
ATOM      2  N   UNL     1     127.429 131.701 117.226  1.00  0.00    -0.361 N 
ATOM      3  C   UNL     1     125.498 132.914 121.256  1.00  0.00     0.091 C 
ATOM      4  C   UNL     1     126.018 134.310 120.769  1.00  0.00    -0.026 C 
ATOM      5  C   UNL     1     125.146 131.884 120.120  1.00  0.00     0.061 C 
ATOM      6  C   UNL     1     124.877 133.953 123.357  1.00  0.00     0.102 C 
ATOM      7  C   UNL     1     125.093 135.381 122.823  1.00  0.00     0.116 C 
ATOM      8  C   UNL     1     126.140 131.951 119.015  1.00  0.00    -0.020 A 
ATOM      9  C   UNL     1     126.849 134.341 119.538  1.00  0.00    -0.011 A 
ATOM     10  C   UNL     1     125.787 135.429 121.487  1.00  0.00    -0.007 C 
ATOM     11  C   UNL     1     126.862 133.145 118.805  1.00  0.00     0.010 A 
ATOM     12  C   UNL     1     127.647 132.986 117.673  1.00  0.00     0.046 A 
ATOM     13  C   UNL     1     126.510 131.064 118.031  1.00  0.00     0.087 A 
ATOM     14  C   UNL     1     127.652 135.385 119.057  1.00  0.00     0.009 A 
ATOM     15  C   UNL     1     128.455 134.017 117.190  1.00  0.00     0.027 A 
ATOM     16  C   UNL     1     128.435 135.223 117.904  1.00  0.00     0.003 A 
ATOM     17  H   UNL     1     127.867 131.295 116.411  1.00  0.00     0.166 HD
ENDROOT
BRANCH   7  18
ATOM     18  C   UNL     1     125.729 136.270 123.909  1.00  0.00     0.230 C 
ATOM     19  O   UNL     1     126.954 136.454 123.853  1.00  0.00    -0.274 OA
ATOM     20  N   UNL     1     124.968 136.892 124.896  1.00  0.00    -0.343 N 
BRANCH  20  21
ATOM     21  C   UNL     1     125.667 137.812 125.800  1.00  0.00     0.116 C 
ATOM     22  C   UNL     1     124.960 139.157 125.887  1.00  0.00     0.027 C 
ENDBRANCH  20  21
BRANCH  20  23
ATOM     23  C   UNL     1     123.527 136.739 125.118  1.00  0.00     0.116 C 
ATOM     24  C   UNL     1     123.215 135.732 126.216  1.00  0.00     0.027 C 
ENDBRANCH  20  23
ENDBRANCH   7  18
BRANCH   1  25
ATOM     25  C   UNL     1     123.096 133.277 121.794  1.00  0.00     0.085 C 
BRANCH  25  26
ATOM     26  C   UNL     1     121.948 133.228 122.818  1.00  0.00     0.012 C 
ATOM     27  C   UNL     1     120.568 133.281 122.177  1.00  0.00     0.005 C 
ENDBRANCH  25  26
ENDBRANCH   1  25
TORSDOF 5
ENDMDL
MODEL 2
REMARK VINA RESULT:    -9.066      2.437      6.383
REMARK INTER + INTRA:         -12.496
REMARK INTER:                 -11.787
REMARK INTRA:                  -0.708
REMARK UNBOUND:                -0.780
REMARK SMILES CCCN1C[C@H](C(=O)N(CC)CC)C=C2c3cccc4[nH]cc(c34)C[C@H]21
REMARK SMILES IDX 4 1 21 2 26 3 15 4 25 5 5 6 6 7 23 8 16 9 14 10 24 11 20 12
REMARK SMILES IDX 22 13 17 14 19 15 18 16 7 18 8 19 9 20 10 21 11 22 12 23
REMARK SMILES IDX 13 24 3 25 2 26 1 27
REMARK H PARENT 21 17
ROOT
ATOM      1  N   UNL     1     126.014 133.886 119.582  1.00  0.00    -0.295 NA
ATOM      2  N   UNL     1     121.201 133.168 123.168  1.00  0.00    -0.361 N 
ATOM      3  C   UNL     1     124.976 134.085 120.649  1.00  0.00     0.091 C 
ATOM      4  C   UNL     1     125.563 134.245 122.093  1.00  0.00    -0.026 C 
ATOM      5  C   UNL     1     123.763 133.092 120.514  1.00  0.00     0.061 C 
ATOM      6  C   UNL     1     127.092 134.882 119.772  1.00  0.00     0.102 C 
ATOM      7  C   UNL     1     127.805 134.773 121.133  1.00  0.00     0.116 C 
ATOM      8  C   UNL     1     122.837 133.222 121.671  1.00  0.00    -0.020 A 
ATOM      9  C   UNL     1     124.613 134.169 123.232  1.00  0.00    -0.011 A 
ATOM     10  C   UNL     1     126.869 134.524 122.288  1.00  0.00    -0.007 C 
ATOM     11  C   UNL     1     123.331 133.705 122.902  1.00  0.00     0.010 A 
ATOM     12  C   UNL     1     122.308 133.647 123.835  1.00  0.00     0.046 A 
ATOM     13  C   UNL     1     121.512 132.901 121.853  1.00  0.00     0.087 A 
ATOM     14  C   UNL     1     124.821 134.550 124.567  1.00  0.00     0.009 A 
ATOM     15  C   UNL     1     122.503 134.030 125.163  1.00  0.00     0.027 A 
ATOM     16  C   UNL     1     123.786 134.477 125.509  1.00  0.00     0.003 A 
ATOM     17  H   UNL     1     120.296 133.017 123.592  1.00  0.00     0.166 HD
ENDROOT
BRANCH   7  18
ATOM     18  C   UNL     1     128.768 135.958 121.332  1.00  0.00     0.230 C 
ATOM     19  O   UNL     1     128.459 136.811 122.176  1.00  0.00    -0.274 OA
ATOM     20  N   UNL     1     129.969 136.061 120.633  1.00  0.00    -0.343 N 
BRANCH  20  21
ATOM     21  C   UNL     1     130.861 137.167 120.995  1.00  0.00     0.116 C 
ATOM     22  C   UNL     1     132.250 136.669 121.366  1.00  0.00     0.027 C 
ENDBRANCH  20  21
BRANCH  20  23
ATOM     23  C   UNL     1     130.449 135.162 119.579  1.00  0.00     0.116 C 
ATOM     24  C   UNL     1     130.314 135.774 118.192  1.00  0.00     0.027 C 
ENDBRANCH  20  23
ENDBRANCH   7  18
BRANCH   1  25
ATOM     25  C   UNL     1     126.516 132.501 119.504  1.00  0.00     0.085 C 
BRANCH  25  26
ATOM     26  C   UNL     1     126.811 131.972 118.090  1.00  0.00     0.012 C 
ATOM     27  C   UNL     1     128.263 132.154 117.670  1.00  0.00     0.005 C 
ENDBRANCH  25  26
ENDBRANCH   1  25
TORSDOF 5
ENDMDL
MODEL 3
REMARK VINA RESULT:    -8.910      2.973      4.578
REMARK INTER + INTRA:         -12.295
REMARK INTER:                 -11.913
REMARK INTRA:                  -0.382
REMARK UNBOUND:                -0.780
REMARK SMILES CCCN1C[C@H](C(=O)N(CC)CC)C=C2c3cccc4[nH]cc(c34)C[C@H]21
REMARK SMILES IDX 4 1 21 2 26 3 15 4 25 5 5 6 6 7 23 8 16 9 14 10 24 11 20 12
REMARK SMILES IDX 22 13 17 14 19 15 18 16 7 18 8 19 9 20 10 21 11 22 12 23
REMARK SMILES IDX 13 24 3 25 2 26 1 27
REMARK H PARENT 21 17
ROOT
ATOM      1  N   UNL     1     126.992 133.350 120.510  1.00  0.00    -0.295 NA
ATOM      2  N   UNL     1     131.999 136.723 120.215  1.00  0.00    -0.361 N 
ATOM      3  C   UNL     1     128.150 134.236 120.872  1.00  0.00     0.091 C 
ATOM      4  C   UNL     1     127.739 135.571 121.581  1.00  0.00    -0.026 C 
ATOM      5  C   UNL     1     129.196 134.379 119.704  1.00  0.00     0.061 C 
ATOM      6  C   UNL     1     126.085 133.250 121.675  1.00  0.00     0.102 C 
ATOM      7  C   UNL     1     125.505 134.603 122.128  1.00  0.00     0.116 C 
ATOM      8  C   UNL     1     130.243 135.378 120.049  1.00  0.00    -0.020 A 
ATOM      9  C   UNL     1     128.780 136.621 121.723  1.00  0.00    -0.011 A 
ATOM     10  C   UNL     1     126.509 135.727 122.116  1.00  0.00    -0.007 C 
ATOM     11  C   UNL     1     129.946 136.400 120.976  1.00  0.00     0.010 A 
ATOM     12  C   UNL     1     131.041 137.247 121.057  1.00  0.00     0.046 A 
ATOM     13  C   UNL     1     131.523 135.590 119.593  1.00  0.00     0.087 A 
ATOM     14  C   UNL     1     128.761 137.760 122.542  1.00  0.00     0.009 A 
ATOM     15  C   UNL     1     131.035 138.379 121.873  1.00  0.00     0.027 A 
ATOM     16  C   UNL     1     129.867 138.620 122.610  1.00  0.00     0.003 A 
ATOM     17  H   UNL     1     132.913 137.128 120.064  1.00  0.00     0.166 HD
ENDROOT
BRANCH   7  18
ATOM     18  C   UNL     1     124.738 134.443 123.454  1.00  0.00     0.230 C 
ATOM     19  O   UNL     1     125.289 134.849 124.487  1.00  0.00    -0.274 OA
ATOM     20  N   UNL     1     123.452 133.908 123.505  1.00  0.00    -0.343 N 
BRANCH  20  21
ATOM     21  C   UNL     1     122.774 133.919 124.805  1.00  0.00     0.116 C 
ATOM     22  C   UNL     1     122.401 135.331 125.232  1.00  0.00     0.027 C 
ENDBRANCH  20  21
BRANCH  20  23
ATOM     23  C   UNL     1     122.691 133.348 122.383  1.00  0.00     0.116 C 
ATOM     24  C   UNL     1     121.196 133.300 122.667  1.00  0.00     0.027 C 
ENDBRANCH  20  23
ENDBRANCH   7  18
BRANCH   1  25
ATOM     25  C   UNL     1     126.300 133.764 119.275  1.00  0.00     0.085 C 
BRANCH  25  26
ATOM     26  C   UNL     1     125.147 132.856 118.814  1.00  0.00     0.012 C 
ATOM     27  C   UNL     1     123.782 133.525 118.901  1.00  0.00     0.005 C 
ENDBRANCH  25  26
ENDBRANCH   1  25
TORSDOF 5
ENDMDL
MODEL 4
REMARK VINA RESULT:    -8.860      2.594      3.991
REMARK INTER + INTRA:         -12.229
REMARK INTER:                 -11.441
REMARK INTRA:                  -0.788
REMARK UNBOUND:                -0.780
REMARK SMILES CCCN1C[C@H](C(=O)N(CC)CC)C=C2c3cccc4[nH]cc(c34)C[C@H]21
REMARK SMILES IDX 4 1 21 2 26 3 15 4 25 5 5 6 6 7 23 8 16 9 14 10 24 11 20 12
REMARK SMILES IDX 22 13 17 14 19 15 18 16 7 18 8 19 9 20 10 21 11 22 12 23
REMARK SMILES IDX 13 24 3 25 2 26 1 27
REMARK H PARENT 21 17
ROOT
ATOM      1  N   UNL     1     126.047 133.420 120.935  1.00  0.00    -0.295 NA
ATOM      2  N   UNL     1     131.012 136.534 119.454  1.00  0.00    -0.361 N 
ATOM      3  C   UNL     1     127.327 134.202 121.011  1.00  0.00     0.091 C 
ATOM      4  C   UNL     1     127.248 135.478 121.917  1.00  0.00    -0.026 C 
ATOM      5  C   UNL     1     128.000 134.408 119.603  1.00  0.00     0.061 C 
ATOM      6  C   UNL     1     125.510 133.251 122.304  1.00  0.00     0.102 C 
ATOM      7  C   UNL     1     125.197 134.580 123.017  1.00  0.00     0.116 C 
ATOM      8  C   UNL     1     129.179 135.309 119.704  1.00  0.00    -0.020 A 
ATOM      9  C   UNL     1     128.367 136.450 121.831  1.00  0.00    -0.011 A 
ATOM     10  C   UNL     1     126.242 135.643 122.801  1.00  0.00    -0.007 C 
ATOM     11  C   UNL     1     129.247 136.245 120.758  1.00  0.00     0.010 A 
ATOM     12  C   UNL     1     130.383 137.019 120.581  1.00  0.00     0.046 A 
ATOM     13  C   UNL     1     130.286 135.498 118.909  1.00  0.00     0.087 A 
ATOM     14  C   UNL     1     128.678 137.499 122.710  1.00  0.00     0.009 A 
ATOM     15  C   UNL     1     130.705 138.061 121.453  1.00  0.00     0.027 A 
ATOM     16  C   UNL     1     129.822 138.287 122.518  1.00  0.00     0.003 A 
ATOM     17  H   UNL     1     131.873 136.903 119.074  1.00  0.00     0.166 HD
ENDROOT
BRANCH   7  18
ATOM     18  C   UNL     1     124.834 134.326 124.492  1.00  0.00     0.230 C 
ATOM     19  O   UNL     1     125.119 133.218 124.969  1.00  0.00    -0.274 OA
ATOM     20  N   UNL     1     124.252 135.308 125.291  1.00  0.00    -0.343 N 
BRANCH  20  21
ATOM     21  C   UNL     1     124.066 134.993 126.711  1.00  0.00     0.116 C 
ATOM     22  C   UNL     1     122.592 134.951 127.087  1.00  0.00     0.027 C 
ENDBRANCH  20  21
BRANCH  20  23
ATOM     23  C   UNL     1     123.819 136.643 124.863  1.00  0.00     0.116 C 
ATOM     24  C   UNL     1     124.613 137.752 125.540  1.00  0.00     0.027 C 
ENDBRANCH  20  23
ENDBRANCH   7  18
BRANCH   1  25
ATOM     25  C   UNL     1     125.063 133.995 119.997  1.00  0.00     0.085 C 
BRANCH  25  26
ATOM     26  C   UNL     1     124.286 132.985 119.137  1.00  0.00     0.012 C 
ATOM     27  C   UNL     1     125.183 131.970 118.443  1.00  0.00     0.005 C 
ENDBRANCH  25  26
ENDBRANCH   1  25
TORSDOF 5
ENDMDL
MODEL 5
REMARK VINA RESULT:    -8.662      3.026      4.394
REMARK INTER + INTRA:         -11.974
REMARK INTER:                 -11.961
REMARK INTRA:                  -0.013
REMARK UNBOUND:                -0.780
REMARK SMILES CCCN1C[C@H](C(=O)N(CC)CC)C=C2c3cccc4[nH]cc(c34)C[C@H]21
REMARK SMILES IDX 4 1 21 2 26 3 15 4 25 5 5 6 6 7 23 8 16 9 14 10 24 11 20 12
REMARK SMILES IDX 22 13 17 14 19 15 18 16 7 18 8 19 9 20 10 21 11 22 12 23
REMARK SMILES IDX 13 24 3 25 2 26 1 27
REMARK H PARENT 21 17
ROOT
ATOM      1  N   UNL     1     126.804 133.163 120.500  1.00  0.00    -0.295 NA
ATOM      2  N   UNL     1     131.749 136.637 120.351  1.00  0.00    -0.361 N 
ATOM      3  C   UNL     1     127.938 134.064 120.897  1.00  0.00     0.091 C 
ATOM      4  C   UNL     1     127.490 135.377 121.625  1.00  0.00    -0.026 C 
ATOM      5  C   UNL     1     129.000 134.250 119.750  1.00  0.00     0.061 C 
ATOM      6  C   UNL     1     125.881 133.023 121.648  1.00  0.00     0.102 C 
ATOM      7  C   UNL     1     125.267 134.356 122.116  1.00  0.00     0.116 C 
ATOM      8  C   UNL     1     130.022 135.262 120.131  1.00  0.00    -0.020 A 
ATOM      9  C   UNL     1     128.508 136.444 121.804  1.00  0.00    -0.011 A 
ATOM     10  C   UNL     1     126.249 135.498 122.143  1.00  0.00    -0.007 C 
ATOM     11  C   UNL     1     129.690 136.260 121.073  1.00  0.00     0.010 A 
ATOM     12  C   UNL     1     130.767 137.126 121.187  1.00  0.00     0.046 A 
ATOM     13  C   UNL     1     131.304 135.508 119.700  1.00  0.00     0.087 A 
ATOM     14  C   UNL     1     128.454 137.566 122.644  1.00  0.00     0.009 A 
ATOM     15  C   UNL     1     130.726 138.242 122.025  1.00  0.00     0.027 A 
ATOM     16  C   UNL     1     129.541 138.446 122.746  1.00  0.00     0.003 A 
ATOM     17  H   UNL     1     132.656 137.062 120.223  1.00  0.00     0.166 HD
ENDROOT
BRANCH   7  18
ATOM     18  C   UNL     1     124.482 134.155 123.426  1.00  0.00     0.230 C 
ATOM     19  O   UNL     1     123.326 133.718 123.340  1.00  0.00    -0.274 OA
ATOM     20  N   UNL     1     125.049 134.404 124.675  1.00  0.00    -0.343 N 
BRANCH  20  21
ATOM     21  C   UNL     1     124.248 134.059 125.854  1.00  0.00     0.116 C 
ATOM     22  C   UNL     1     123.349 135.212 126.277  1.00  0.00     0.027 C 
ENDBRANCH  20  21
BRANCH  20  23
ATOM     23  C   UNL     1     126.380 134.961 124.937  1.00  0.00     0.116 C 
ATOM     24  C   UNL     1     126.803 134.786 126.389  1.00  0.00     0.027 C 
ENDBRANCH  20  23
ENDBRANCH   7  18
BRANCH   1  25
ATOM     25  C   UNL     1     126.124 133.588 119.261  1.00  0.00     0.085 C 
BRANCH  25  26
ATOM     26  C   UNL     1     124.966 132.691 118.789  1.00  0.00     0.012 C 
ATOM     27  C   UNL     1     123.604 133.364 118.891  1.00  0.00     0.005 C 
ENDBRANCH  25  26
ENDBRANCH   1  25
TORSDOF 5
ENDMDL
MODEL 6
REMARK VINA RESULT:    -8.314      2.654      6.600
REMARK INTER + INTRA:         -11.524
REMARK INTER:                 -10.657
REMARK INTRA:                  -0.867
REMARK UNBOUND:                -0.780
REMARK SMILES CCCN1C[C@H](C(=O)N(CC)CC)C=C2c3cccc4[nH]cc(c34)C[C@H]21
REMARK SMILES IDX 4 1 21 2 26 3 15 4 25 5 5 6 6 7 23 8 16 9 14 10 24 11 20 12
REMARK SMILES IDX 22 13 17 14 19 15 18 16 7 18 8 19 9 20 10 21 11 22 12 23
REMARK SMILES IDX 13 24 3 25 2 26 1 27
REMARK H PARENT 21 17
ROOT
ATOM      1  N   UNL     1     125.680 134.591 120.619  1.00  0.00    -0.295 NA
ATOM      2  N   UNL     1     122.312 133.944 125.596  1.00  0.00    -0.361 N 
ATOM      3  C   UNL     1     125.095 134.773 121.990  1.00  0.00     0.091 C 
ATOM      4  C   UNL     1     126.149 134.736 123.148  1.00  0.00    -0.026 C 
ATOM      5  C   UNL     1     123.800 133.908 122.220  1.00  0.00     0.061 C 
ATOM      6  C   UNL     1     126.867 135.465 120.487  1.00  0.00     0.102 C 
ATOM      7  C   UNL     1     127.980 135.158 121.507  1.00  0.00     0.116 C 
ATOM      8  C   UNL     1     123.341 134.003 123.632  1.00  0.00    -0.020 A 
ATOM      9  C   UNL     1     125.638 134.630 124.539  1.00  0.00    -0.011 A 
ATOM     10  C   UNL     1     127.467 134.878 122.896  1.00  0.00    -0.007 C 
ATOM     11  C   UNL     1     124.275 134.316 124.643  1.00  0.00     0.010 A 
ATOM     12  C   UNL     1     123.627 134.255 125.868  1.00  0.00     0.046 A 
ATOM     13  C   UNL     1     122.128 133.783 124.241  1.00  0.00     0.087 A 
ATOM     14  C   UNL     1     126.327 134.856 125.739  1.00  0.00     0.009 A 
ATOM     15  C   UNL     1     124.302 134.485 127.068  1.00  0.00     0.027 A 
ATOM     16  C   UNL     1     125.670 134.781 126.976  1.00  0.00     0.003 A 
ATOM     17  H   UNL     1     121.593 133.831 126.297  1.00  0.00     0.166 HD
ENDROOT
BRANCH   7  18
ATOM     18  C   UNL     1     129.085 136.229 121.435  1.00  0.00     0.230 C 
ATOM     19  O   UNL     1     129.004 137.189 122.214  1.00  0.00    -0.274 OA
ATOM     20  N   UNL     1     130.169 136.117 120.566  1.00  0.00    -0.343 N 
BRANCH  20  21
ATOM     21  C   UNL     1     131.220 137.134 120.673  1.00  0.00     0.116 C 
ATOM     22  C   UNL     1     132.559 136.518 121.054  1.00  0.00     0.027 C 
ENDBRANCH  20  21
BRANCH  20  23
ATOM     23  C   UNL     1     130.381 135.071 119.561  1.00  0.00     0.116 C 
ATOM     24  C   UNL     1     129.891 135.487 118.181  1.00  0.00     0.027 C 
ENDBRANCH  20  23
ENDBRANCH   7  18
BRANCH   1  25
ATOM     25  C   UNL     1     125.962 133.182 120.284  1.00  0.00     0.085 C 
BRANCH  25  26
ATOM     26  C   UNL     1     125.531 132.727 118.879  1.00  0.00     0.012 C 
ATOM     27  C   UNL     1     124.034 132.476 118.761  1.00  0.00     0.005 C 
ENDBRANCH  25  26
ENDBRANCH   1  25
TORSDOF 5
ENDMDL
MODEL 7
REMARK VINA RESULT:    -8.241      1.338      1.648
REMARK INTER + INTRA:         -11.430
REMARK INTER:                 -11.749
REMARK INTRA:                   0.319
REMARK UNBOUND:                -0.780
REMARK SMILES CCCN1C[C@H](C(=O)N(CC)CC)C=C2c3cccc4[nH]cc(c34)C[C@H]21
REMARK SMILES IDX 4 1 21 2 26 3 15 4 25 5 5 6 6 7 23 8 16 9 14 10 24 11 20 12
REMARK SMILES IDX 22 13 17 14 19 15 18 16 7 18 8 19 9 20 10 21 11 22 12 23
REMARK SMILES IDX 13 24 3 25 2 26 1 27
REMARK H PARENT 21 17
ROOT
ATOM      1  N   UNL     1     125.215 132.660 121.809  1.00  0.00    -0.295 NA
ATOM      2  N   UNL     1     128.875 133.067 117.015  1.00  0.00    -0.361 N 
ATOM      3  C   UNL     1     126.333 133.051 120.885  1.00  0.00     0.091 C 
ATOM      4  C   UNL     1     126.459 134.594 120.644  1.00  0.00    -0.026 C 
ATOM      5  C   UNL     1     126.399 132.153 119.594  1.00  0.00     0.061 C 
ATOM      6  C   UNL     1     125.255 133.534 123.002  1.00  0.00     0.102 C 
ATOM      7  C   UNL     1     125.086 135.031 122.682  1.00  0.00     0.116 C 
ATOM      8  C   UNL     1     127.420 132.665 118.641  1.00  0.00    -0.020 A 
ATOM      9  C   UNL     1     127.346 135.047 119.543  1.00  0.00    -0.011 A 
ATOM     10  C   UNL     1     125.848 135.478 121.461  1.00  0.00    -0.007 C 
ATOM     11  C   UNL     1     127.774 134.032 118.675  1.00  0.00     0.010 A 
ATOM     12  C   UNL     1     128.666 134.276 117.642  1.00  0.00     0.046 A 
ATOM     13  C   UNL     1     128.118 132.081 117.610  1.00  0.00     0.087 A 
ATOM     14  C   UNL     1     127.845 136.335 119.302  1.00  0.00     0.009 A 
ATOM     15  C   UNL     1     129.173 135.553 117.397  1.00  0.00     0.027 A 
ATOM     16  C   UNL     1     128.737 136.579 118.247  1.00  0.00     0.003 A 
ATOM     17  H   UNL     1     129.482 132.931 116.218  1.00  0.00     0.166 HD
ENDROOT
BRANCH   7  18
ATOM     18  C   UNL     1     125.337 135.882 123.941  1.00  0.00     0.230 C 
ATOM     19  O   UNL     1     126.456 136.399 124.070  1.00  0.00    -0.274 OA
ATOM     20  N   UNL     1     124.342 136.113 124.888  1.00  0.00    -0.343 N 
BRANCH  20  21
ATOM     21  C   UNL     1     124.659 137.039 125.981  1.00  0.00     0.116 C 
ATOM     22  C   UNL     1     123.794 138.289 125.925  1.00  0.00     0.027 C 
ENDBRANCH  20  21
BRANCH  20  23
ATOM     23  C   UNL     1     122.992 135.540 124.899  1.00  0.00     0.116 C 
ATOM     24  C   UNL     1     122.907 134.277 125.744  1.00  0.00     0.027 C 
ENDBRANCH  20  23
ENDBRANCH   7  18
BRANCH   1  25
ATOM     25  C   UNL     1     123.893 132.640 121.153  1.00  0.00     0.085 C 
BRANCH  25  26
ATOM     26  C   UNL     1     123.904 132.476 119.624  1.00  0.00     0.012 C 
ATOM     27  C   UNL     1     123.432 133.720 118.882  1.00  0.00     0.005 C 
ENDBRANCH  25  26
ENDBRANCH   1  25
TORSDOF 5
ENDMDL
MODEL 8
REMARK VINA RESULT:    -8.191      2.833      6.262
REMARK INTER + INTRA:         -11.365
REMARK INTER:                 -11.412
REMARK INTRA:                   0.047
REMARK UNBOUND:                -0.780
REMARK SMILES CCCN1C[C@H](C(=O)N(CC)CC)C=C2c3cccc4[nH]cc(c34)C[C@H]21
REMARK SMILES IDX 4 1 21 2 26 3 15 4 25 5 5 6 6 7 23 8 16 9 14 10 24 11 20 12
REMARK SMILES IDX 22 13 17 14 19 15 18 16 7 18 8 19 9 20 10 21 11 22 12 23
REMARK SMILES IDX 13 24 3 25 2 26 1 27
REMARK H PARENT 21 17
ROOT
ATOM      1  N   UNL     1     125.795 133.853 120.247  1.00  0.00    -0.295 NA
ATOM      2  N   UNL     1     122.776 134.235 125.470  1.00  0.00    -0.361 N 
ATOM      3  C   UNL     1     125.351 134.263 121.622  1.00  0.00     0.091 C 
ATOM      4  C   UNL     1     126.479 134.197 122.707  1.00  0.00    -0.026 C 
ATOM      5  C   UNL     1     123.973 133.624 122.033  1.00  0.00     0.061 C 
ATOM      6  C   UNL     1     127.077 134.526 119.939  1.00  0.00     0.102 C 
ATOM      7  C   UNL     1     128.214 134.173 120.914  1.00  0.00     0.116 C 
ATOM      8  C   UNL     1     123.645 133.935 123.450  1.00  0.00    -0.020 A 
ATOM      9  C   UNL     1     126.070 134.316 124.130  1.00  0.00    -0.011 A 
ATOM     10  C   UNL     1     127.780 134.119 122.356  1.00  0.00    -0.007 C 
ATOM     11  C   UNL     1     124.690 134.215 124.357  1.00  0.00     0.010 A 
ATOM     12  C   UNL     1     124.139 134.380 125.619  1.00  0.00     0.046 A 
ATOM     13  C   UNL     1     122.465 133.959 124.157  1.00  0.00     0.087 A 
ATOM     14  C   UNL     1     126.877 134.566 125.250  1.00  0.00     0.009 A 
ATOM     15  C   UNL     1     124.933 134.635 126.738  1.00  0.00     0.027 A 
ATOM     16  C   UNL     1     126.316 134.719 126.526  1.00  0.00     0.003 A 
ATOM     17  H   UNL     1     122.107 134.302 126.223  1.00  0.00     0.166 HD
ENDROOT
BRANCH   7  18
ATOM     18  C   UNL     1     129.446 135.058 120.648  1.00  0.00     0.230 C 
ATOM     19  O   UNL     1     130.310 134.620 119.875  1.00  0.00    -0.274 OA
ATOM     20  N   UNL     1     129.580 136.327 121.206  1.00  0.00    -0.343 N 
BRANCH  20  21
ATOM     21  C   UNL     1     130.735 137.127 120.783  1.00  0.00     0.116 C 
ATOM     22  C   UNL     1     132.014 136.670 121.469  1.00  0.00     0.027 C 
ENDBRANCH  20  21
BRANCH  20  23
ATOM     23  C   UNL     1     128.672 136.963 122.166  1.00  0.00     0.116 C 
ATOM     24  C   UNL     1     129.196 138.305 122.657  1.00  0.00     0.027 C 
ENDBRANCH  20  23
ENDBRANCH   7  18
BRANCH   1  25
ATOM     25  C   UNL     1     125.854 132.390 120.061  1.00  0.00     0.085 C 
BRANCH  25  26
ATOM     26  C   UNL     1     125.599 131.884 118.631  1.00  0.00     0.012 C 
ATOM     27  C   UNL     1     126.866 131.793 117.791  1.00  0.00     0.005 C 
ENDBRANCH  25  26
ENDBRANCH   1  25
TORSDOF 5
ENDMDL
MODEL 9
REMARK VINA RESULT:    -8.170      1.237      1.810
REMARK INTER + INTRA:         -11.338
REMARK INTER:                 -11.113
REMARK INTRA:                  -0.225
REMARK UNBOUND:                -0.780
REMARK SMILES CCCN1C[C@H](C(=O)N(CC)CC)C=C2c3cccc4[nH]cc(c34)C[C@H]21
REMARK SMILES IDX 4 1 21 2 26 3 15 4 25 5 5 6 6 7 23 8 16 9 14 10 24 11 20 12
REMARK SMILES IDX 22 13 17 14 19 15 18 16 7 18 8 19 9 20 10 21 11 22 12 23
REMARK SMILES IDX 13 24 3 25 2 26 1 27
REMARK H PARENT 21 17
ROOT
ATOM      1  N   UNL     1     124.406 132.626 121.750  1.00  0.00    -0.295 NA
ATOM      2  N   UNL     1     128.043 132.693 116.923  1.00  0.00    -0.361 N 
ATOM      3  C   UNL     1     125.552 132.903 120.820  1.00  0.00     0.091 C 
ATOM      4  C   UNL     1     125.846 134.426 120.599  1.00  0.00    -0.026 C 
ATOM      5  C   UNL     1     125.506 132.022 119.516  1.00  0.00     0.061 C 
ATOM      6  C   UNL     1     124.554 133.473 122.955  1.00  0.00     0.102 C 
ATOM      7  C   UNL     1     124.550 134.984 122.656  1.00  0.00     0.116 C 
ATOM      8  C   UNL     1     126.569 132.432 118.560  1.00  0.00    -0.020 A 
ATOM      9  C   UNL     1     126.769 134.794 119.494  1.00  0.00    -0.011 A 
ATOM     10  C   UNL     1     125.345 135.361 121.433  1.00  0.00    -0.007 C 
ATOM     11  C   UNL     1     127.073 133.750 118.608  1.00  0.00     0.010 A 
ATOM     12  C   UNL     1     127.977 133.909 117.568  1.00  0.00     0.046 A 
ATOM     13  C   UNL     1     127.188 131.789 117.513  1.00  0.00     0.087 A 
ATOM     14  C   UNL     1     127.406 136.022 119.264  1.00  0.00     0.009 A 
ATOM     15  C   UNL     1     128.620 135.125 117.335  1.00  0.00     0.027 A 
ATOM     16  C   UNL     1     128.309 136.181 118.204  1.00  0.00     0.003 A 
ATOM     17  H   UNL     1     128.624 132.502 116.118  1.00  0.00     0.166 HD
ENDROOT
BRANCH   7  18
ATOM     18  C   UNL     1     124.906 135.783 123.924  1.00  0.00     0.230 C 
ATOM     19  O   UNL     1     123.969 136.177 124.634  1.00  0.00    -0.274 OA
ATOM     20  N   UNL     1     126.225 136.023 124.302  1.00  0.00    -0.343 N 
BRANCH  20  21
ATOM     21  C   UNL     1     126.442 136.688 125.592  1.00  0.00     0.116 C 
ATOM     22  C   UNL     1     126.240 138.192 125.487  1.00  0.00     0.027 C 
ENDBRANCH  20  21
BRANCH  20  23
ATOM     23  C   UNL     1     127.431 135.662 123.551  1.00  0.00     0.116 C 
ATOM     24  C   UNL     1     128.074 136.866 122.876  1.00  0.00     0.027 C 
ENDBRANCH  20  23
ENDBRANCH   7  18
BRANCH   1  25
ATOM     25  C   UNL     1     123.084 132.763 121.109  1.00  0.00     0.085 C 
BRANCH  25  26
ATOM     26  C   UNL     1     121.873 132.390 121.981  1.00  0.00     0.012 C 
ATOM     27  C   UNL     1     120.725 133.384 121.872  1.00  0.00     0.005 C 
ENDBRANCH  25  26
ENDBRANCH   1  25
TORSDOF 5
ENDMDL
MODEL 10
REMARK VINA RESULT:    -8.157      3.086      6.090
REMARK INTER + INTRA:         -11.321
REMARK INTER:                 -10.877
REMARK INTRA:                  -0.445
REMARK UNBOUND:                -0.780
REMARK SMILES CCCN1C[C@H](C(=O)N(CC)CC)C=C2c3cccc4[nH]cc(c34)C[C@H]21
REMARK SMILES IDX 4 1 21 2 26 3 15 4 25 5 5 6 6 7 23 8 16 9 14 10 24 11 20 12
REMARK SMILES IDX 22 13 17 14 19 15 18 16 7 18 8 19 9 20 10 21 11 22 12 23
REMARK SMILES IDX 13 24 3 25 2 26 1 27
REMARK H PARENT 21 17
ROOT
ATOM      1  N   UNL     1     125.824 135.169 123.250  1.00  0.00    -0.295 NA
ATOM      2  N   UNL     1     130.648 138.501 121.780  1.00  0.00    -0.361 N 
ATOM      3  C   UNL     1     126.929 135.834 122.480  1.00  0.00     0.091 C 
ATOM      4  C   UNL     1     127.827 134.844 121.662  1.00  0.00    -0.026 C 
ATOM      5  C   UNL     1     127.702 136.911 123.329  1.00  0.00     0.061 C 
ATOM      6  C   UNL     1     125.139 134.203 122.362  1.00  0.00     0.102 C 
ATOM      7  C   UNL     1     126.060 133.091 121.826  1.00  0.00     0.116 C 
ATOM      8  C   UNL     1     128.876 137.435 122.582  1.00  0.00    -0.020 A 
ATOM      9  C   UNL     1     129.096 135.374 121.101  1.00  0.00    -0.011 A 
ATOM     10  C   UNL     1     127.422 133.583 121.408  1.00  0.00    -0.007 C 
ATOM     11  C   UNL     1     129.474 136.635 121.584  1.00  0.00     0.010 A 
ATOM     12  C   UNL     1     130.592 137.301 121.105  1.00  0.00     0.046 A 
ATOM     13  C   UNL     1     129.613 138.591 122.685  1.00  0.00     0.087 A 
ATOM     14  C   UNL     1     129.921 134.801 120.121  1.00  0.00     0.009 A 
ATOM     15  C   UNL     1     131.416 136.742 120.126  1.00  0.00     0.027 A 
ATOM     16  C   UNL     1     131.058 135.473 119.650  1.00  0.00     0.003 A 
ATOM     17  H   UNL     1     131.361 139.204 121.642  1.00  0.00     0.166 HD
ENDROOT
BRANCH   7  18
ATOM     18  C   UNL     1     125.327 132.251 120.763  1.00  0.00     0.230 C 
ATOM     19  O   UNL     1     124.733 131.233 121.147  1.00  0.00    -0.274 OA
ATOM     20  N   UNL     1     125.280 132.631 119.423  1.00  0.00    -0.343 N 
BRANCH  20  21
ATOM     21  C   UNL     1     124.450 131.820 118.526  1.00  0.00     0.116 C 
ATOM     22  C   UNL     1     125.290 131.105 117.479  1.00  0.00     0.027 C 
ENDBRANCH  20  21
BRANCH  20  23
ATOM     23  C   UNL     1     125.963 133.775 118.812  1.00  0.00     0.116 C 
ATOM     24  C   UNL     1     125.109 135.035 118.831  1.00  0.00     0.027 C 
ENDBRANCH  20  23
ENDBRANCH   7  18
BRANCH   1  25
ATOM     25  C   UNL     1     126.274 134.566 124.519  1.00  0.00     0.085 C 
BRANCH  25  26
ATOM     26  C   UNL     1     125.516 135.013 125.781  1.00  0.00     0.012 C 
ATOM     27  C   UNL     1     126.082 134.421 127.064  1.00  0.00     0.005 C 
ENDBRANCH  25  26
ENDBRANCH   1  25
TORSDOF 5
ENDMDL
MODEL 11
REMARK VINA RESULT:    -8.130      2.393      7.627
REMARK INTER + INTRA:         -11.286
REMARK INTER:                 -10.669
REMARK INTRA:                  -0.618
REMARK UNBOUND:                -0.780
REMARK SMILES CCCN1C[C@H](C(=O)N(CC)CC)C=C2c3cccc4[nH]cc(c34)C[C@H]21
REMARK SMILES IDX 4 1 21 2 26 3 15 4 25 5 5 6 6 7 23 8 16 9 14 10 24 11 20 12
REMARK SMILES IDX 22 13 17 14 19 15 18 16 7 18 8 19 9 20 10 21 11 22 12 23
REMARK SMILES IDX 13 24 3 25 2 26 1 27
REMARK H PARENT 21 17
ROOT
ATOM      1  N   UNL     1     127.930 135.166 122.660  1.00  0.00    -0.295 NA
ATOM      2  N   UNL     1     123.471 134.765 126.722  1.00  0.00    -0.361 N 
ATOM      3  C   UNL     1     126.738 134.692 123.442  1.00  0.00     0.091 C 
ATOM      4  C   UNL     1     125.466 134.417 122.569  1.00  0.00    -0.026 C 
ATOM      5  C   UNL     1     126.496 135.529 124.753  1.00  0.00     0.061 C 
ATOM      6  C   UNL     1     128.094 134.302 121.470  1.00  0.00     0.102 C 
ATOM      7  C   UNL     1     126.883 134.318 120.519  1.00  0.00     0.116 C 
ATOM      8  C   UNL     1     125.227 135.126 125.415  1.00  0.00    -0.020 A 
ATOM      9  C   UNL     1     124.177 134.216 123.279  1.00  0.00    -0.011 A 
ATOM     10  C   UNL     1     125.555 134.287 121.229  1.00  0.00    -0.007 C 
ATOM     11  C   UNL     1     124.196 134.549 124.642  1.00  0.00     0.010 A 
ATOM     12  C   UNL     1     123.096 134.348 125.462  1.00  0.00     0.046 A 
ATOM     13  C   UNL     1     124.762 135.245 126.704  1.00  0.00     0.087 A 
ATOM     14  C   UNL     1     122.978 133.689 122.775  1.00  0.00     0.009 A 
ATOM     15  C   UNL     1     121.901 133.820 124.972  1.00  0.00     0.027 A 
ATOM     16  C   UNL     1     121.865 133.500 123.607  1.00  0.00     0.003 A 
ATOM     17  H   UNL     1     122.872 134.740 127.536  1.00  0.00     0.166 HD
ENDROOT
BRANCH   7  18
ATOM     18  C   UNL     1     127.049 133.252 119.420  1.00  0.00     0.230 C 
ATOM     19  O   UNL     1     126.293 132.270 119.456  1.00  0.00    -0.274 OA
ATOM     20  N   UNL     1     127.974 133.390 118.387  1.00  0.00    -0.343 N 
BRANCH  20  21
ATOM     21  C   UNL     1     127.957 132.372 117.331  1.00  0.00     0.116 C 
ATOM     22  C   UNL     1     129.214 131.516 117.358  1.00  0.00     0.027 C 
ENDBRANCH  20  21
BRANCH  20  23
ATOM     23  C   UNL     1     128.961 134.464 118.233  1.00  0.00     0.116 C 
ATOM     24  C   UNL     1     128.473 135.567 117.303  1.00  0.00     0.027 C 
ENDBRANCH  20  23
ENDBRANCH   7  18
BRANCH   1  25
ATOM     25  C   UNL     1     127.879 136.603 122.326  1.00  0.00     0.085 C 
BRANCH  25  26
ATOM     26  C   UNL     1     129.192 137.220 121.816  1.00  0.00     0.012 C 
ATOM     27  C   UNL     1     129.618 138.456 122.596  1.00  0.00     0.005 C 
ENDBRANCH  25  26
ENDBRANCH   1  25
TORSDOF 5
ENDMDL
MODEL 12
REMARK VINA RESULT:    -7.997      2.101      4.131
REMARK INTER + INTRA:         -11.115
REMARK INTER:                 -10.683
REMARK INTRA:                  -0.432
REMARK UNBOUND:                -0.780
REMARK SMILES CCCN1C[C@H](C(=O)N(CC)CC)C=C2c3cccc4[nH]cc(c34)C[C@H]21
REMARK SMILES IDX 4 1 21 2 26 3 15 4 25 5 5 6 6 7 23 8 16 9 14 10 24 11 20 12
REMARK SMILES IDX 22 13 17 14 19 15 18 16 7 18 8 19 9 20 10 21 11 22 12 23
REMARK SMILES IDX 13 24 3 25 2 26 1 27
REMARK H PARENT 21 17
ROOT
ATOM      1  N   UNL     1     125.794 136.134 123.455  1.00  0.00    -0.295 NA
ATOM      2  N   UNL     1     128.013 134.115 118.207  1.00  0.00    -0.361 N 
ATOM      3  C   UNL     1     125.927 135.487 122.107  1.00  0.00     0.091 C 
ATOM      4  C   UNL     1     125.479 133.985 122.069  1.00  0.00    -0.026 C 
ATOM      5  C   UNL     1     127.301 135.805 121.409  1.00  0.00     0.061 C 
ATOM      6  C   UNL     1     124.464 135.806 124.014  1.00  0.00     0.102 C 
ATOM      7  C   UNL     1     124.225 134.296 124.203  1.00  0.00     0.116 C 
ATOM      8  C   UNL     1     127.451 135.028 120.150  1.00  0.00    -0.020 A 
ATOM      9  C   UNL     1     125.831 133.195 120.861  1.00  0.00    -0.011 A 
ATOM     10  C   UNL     1     124.731 133.456 123.059  1.00  0.00    -0.007 C 
ATOM     11  C   UNL     1     126.750 133.812 119.999  1.00  0.00     0.010 A 
ATOM     12  C   UNL     1     127.124 133.239 118.793  1.00  0.00     0.046 A 
ATOM     13  C   UNL     1     128.224 135.203 119.026  1.00  0.00     0.087 A 
ATOM     14  C   UNL     1     125.324 131.951 120.457  1.00  0.00     0.009 A 
ATOM     15  C   UNL     1     126.620 132.006 118.379  1.00  0.00     0.027 A 
ATOM     16  C   UNL     1     125.715 131.371 119.242  1.00  0.00     0.003 A 
ATOM     17  H   UNL     1     128.459 133.966 117.313  1.00  0.00     0.166 HD
ENDROOT
BRANCH   7  18
ATOM     18  C   UNL     1     122.760 134.029 124.596  1.00  0.00     0.230 C 
ATOM     19  O   UNL     1     122.070 133.358 123.815  1.00  0.00    -0.274 OA
ATOM     20  N   UNL     1     122.225 134.474 125.803  1.00  0.00    -0.343 N 
BRANCH  20  21
ATOM     21  C   UNL     1     120.856 134.054 126.124  1.00  0.00     0.116 C 
ATOM     22  C   UNL     1     120.710 133.697 127.596  1.00  0.00     0.027 C 
ENDBRANCH  20  21
BRANCH  20  23
ATOM     23  C   UNL     1     122.896 135.309 126.805  1.00  0.00     0.116 C 
ATOM     24  C   UNL     1     122.482 136.770 126.709  1.00  0.00     0.027 C 
ENDBRANCH  20  23
ENDBRANCH   7  18
BRANCH   1  25
ATOM     25  C   UNL     1     126.902 135.807 124.374  1.00  0.00     0.085 C 
BRANCH  25  26
ATOM     26  C   UNL     1     126.609 135.995 125.872  1.00  0.00     0.012 C 
ATOM     27  C   UNL     1     126.734 134.708 126.676  1.00  0.00     0.005 C 
ENDBRANCH  25  26
ENDBRANCH   1  25
TORSDOF 5
ENDMDL
MODEL 13
REMARK VINA RESULT:    -7.767      2.308      4.630
REMARK INTER + INTRA:         -10.817
REMARK INTER:                 -10.781
REMARK INTRA:                  -0.036
REMARK UNBOUND:                -0.780
REMARK SMILES CCCN1C[C@H](C(=O)N(CC)CC)C=C2c3cccc4[nH]cc(c34)C[C@H]21
REMARK SMILES IDX 4 1 21 2 26 3 15 4 25 5 5 6 6 7 23 8 16 9 14 10 24 11 20 12
REMARK SMILES IDX 22 13 17 14 19 15 18 16 7 18 8 19 9 20 10 21 11 22 12 23
REMARK SMILES IDX 13 24 3 25 2 26 1 27
REMARK H PARENT 21 17
ROOT
ATOM      1  N   UNL     1     129.084 136.349 120.983  1.00  0.00    -0.295 NA
ATOM      2  N   UNL     1     127.167 132.012 117.234  1.00  0.00    -0.361 N 
ATOM      3  C   UNL     1     128.219 135.363 120.250  1.00  0.00     0.091 C 
ATOM      4  C   UNL     1     127.417 134.394 121.185  1.00  0.00    -0.026 C 
ATOM      5  C   UNL     1     128.960 134.683 119.039  1.00  0.00     0.061 C 
ATOM      6  C   UNL     1     128.293 136.956 122.077  1.00  0.00     0.102 C 
ATOM      7  C   UNL     1     127.779 135.938 123.111  1.00  0.00     0.116 C 
ATOM      8  C   UNL     1     128.123 133.611 118.438  1.00  0.00    -0.020 A 
ATOM      9  C   UNL     1     126.760 133.221 120.554  1.00  0.00    -0.011 A 
ATOM     10  C   UNL     1     127.262 134.662 122.498  1.00  0.00    -0.007 C 
ATOM     11  C   UNL     1     127.145 132.970 119.229  1.00  0.00     0.010 A 
ATOM     12  C   UNL     1     126.569 131.959 118.476  1.00  0.00     0.046 A 
ATOM     13  C   UNL     1     128.116 133.009 117.201  1.00  0.00     0.087 A 
ATOM     14  C   UNL     1     125.776 132.379 121.095  1.00  0.00     0.009 A 
ATOM     15  C   UNL     1     125.586 131.120 119.002  1.00  0.00     0.027 A 
ATOM     16  C   UNL     1     125.206 131.350 120.332  1.00  0.00     0.003 A 
ATOM     17  H   UNL     1     126.949 131.391 116.467  1.00  0.00     0.166 HD
ENDROOT
BRANCH   7  18
ATOM     18  C   UNL     1     126.809 136.616 124.096  1.00  0.00     0.230 C 
ATOM     19  O   UNL     1     126.965 137.826 124.314  1.00  0.00    -0.274 OA
ATOM     20  N   UNL     1     125.758 135.923 124.695  1.00  0.00    -0.343 N 
BRANCH  20  21
ATOM     21  C   UNL     1     124.826 136.701 125.519  1.00  0.00     0.116 C 
ATOM     22  C   UNL     1     123.378 136.399 125.163  1.00  0.00     0.027 C 
ENDBRANCH  20  21
BRANCH  20  23
ATOM     23  C   UNL     1     125.471 134.490 124.573  1.00  0.00     0.116 C 
ATOM     24  C   UNL     1     125.800 133.725 125.847  1.00  0.00     0.027 C 
ENDBRANCH  20  23
ENDBRANCH   7  18
BRANCH   1  25
ATOM     25  C   UNL     1     130.363 135.777 121.445  1.00  0.00     0.085 C 
BRANCH  25  26
ATOM     26  C   UNL     1     131.587 136.704 121.350  1.00  0.00     0.012 C 
ATOM     27  C   UNL     1     132.622 136.230 120.339  1.00  0.00     0.005 C 
ENDBRANCH  25  26
ENDBRANCH   1  25
TORSDOF 5
ENDMDL
MODEL 14
REMARK VINA RESULT:    -7.720      2.967      5.196
REMARK INTER + INTRA:         -10.756
REMARK INTER:                 -10.458
REMARK INTRA:                  -0.298
REMARK UNBOUND:                -0.780
REMARK SMILES CCCN1C[C@H](C(=O)N(CC)CC)C=C2c3cccc4[nH]cc(c34)C[C@H]21
REMARK SMILES IDX 4 1 21 2 26 3 15 4 25 5 5 6 6 7 23 8 16 9 14 10 24 11 20 12
REMARK SMILES IDX 22 13 17 14 19 15 18 16 7 18 8 19 9 20 10 21 11 22 12 23
REMARK SMILES IDX 13 24 3 25 2 26 1 27
REMARK H PARENT 21 17
ROOT
ATOM      1  N   UNL     1     126.206 136.557 124.009  1.00  0.00    -0.295 NA
ATOM      2  N   UNL     1     131.164 137.917 120.829  1.00  0.00    -0.361 N 
ATOM      3  C   UNL     1     127.201 136.704 122.893  1.00  0.00     0.091 C 
ATOM      4  C   UNL     1     127.554 135.362 122.167  1.00  0.00    -0.026 C 
ATOM      5  C   UNL     1     128.427 137.610 123.284  1.00  0.00     0.061 C 
ATOM      6  C   UNL     1     125.080 135.721 123.537  1.00  0.00     0.102 C 
ATOM      7  C   UNL     1     125.498 134.303 123.103  1.00  0.00     0.116 C 
ATOM      8  C   UNL     1     129.454 137.608 122.209  1.00  0.00    -0.020 A 
ATOM      9  C   UNL     1     128.720 135.366 121.247  1.00  0.00    -0.011 A 
ATOM     10  C   UNL     1     126.778 134.267 122.309  1.00  0.00    -0.007 C 
ATOM     11  C   UNL     1     129.532 136.507 121.328  1.00  0.00     0.010 A 
ATOM     12  C   UNL     1     130.615 136.699 120.485  1.00  0.00     0.046 A 
ATOM     13  C   UNL     1     130.470 138.475 121.880  1.00  0.00     0.087 A 
ATOM     14  C   UNL     1     129.073 134.409 120.284  1.00  0.00     0.009 A 
ATOM     15  C   UNL     1     130.970 135.756 119.519  1.00  0.00     0.027 A 
ATOM     16  C   UNL     1     130.177 134.603 119.442  1.00  0.00     0.003 A 
ATOM     17  H   UNL     1     131.973 138.327 120.384  1.00  0.00     0.166 HD
ENDROOT
BRANCH   7  18
ATOM     18  C   UNL     1     124.313 133.572 122.445  1.00  0.00     0.230 C 
ATOM     19  O   UNL     1     124.536 132.947 121.398  1.00  0.00    -0.274 OA
ATOM     20  N   UNL     1     123.042 133.560 123.014  1.00  0.00    -0.343 N 
BRANCH  20  21
ATOM     21  C   UNL     1     122.024 132.729 122.362  1.00  0.00     0.116 C 
ATOM     22  C   UNL     1     120.713 133.482 122.189  1.00  0.00     0.027 C 
ENDBRANCH  20  21
BRANCH  20  23
ATOM     23  C   UNL     1     122.613 134.282 124.216  1.00  0.00     0.116 C 
ATOM     24  C   UNL     1     122.851 133.479 125.487  1.00  0.00     0.027 C 
ENDBRANCH  20  23
ENDBRANCH   7  18
BRANCH   1  25
ATOM     25  C   UNL     1     126.804 136.063 125.265  1.00  0.00     0.085 C 
BRANCH  25  26
ATOM     26  C   UNL     1     125.812 135.561 126.328  1.00  0.00     0.012 C 
ATOM     27  C   UNL     1     126.239 134.252 126.978  1.00  0.00     0.005 C 
ENDBRANCH  25  26
ENDBRANCH   1  25
TORSDOF 5
ENDMDL
MODEL 15
REMARK VINA RESULT:    -7.643      2.403      7.159
REMARK INTER + INTRA:         -10.657
REMARK INTER:                 -10.419
REMARK INTRA:                  -0.238
REMARK UNBOUND:                -0.780
REMARK SMILES CCCN1C[C@H](C(=O)N(CC)CC)C=C2c3cccc4[nH]cc(c34)C[C@H]21
REMARK SMILES IDX 4 1 21 2 26 3 15 4 25 5 5 6 6 7 23 8 16 9 14 10 24 11 20 12
REMARK SMILES IDX 22 13 17 14 19 15 18 16 7 18 8 19 9 20 10 21 11 22 12 23
REMARK SMILES IDX 13 24 3 25 2 26 1 27
REMARK H PARENT 21 17
ROOT
ATOM      1  N   UNL     1     128.088 135.192 122.160  1.00  0.00    -0.295 NA
ATOM      2  N   UNL     1     123.026 133.605 125.058  1.00  0.00    -0.361 N 
ATOM      3  C   UNL     1     126.823 134.488 122.559  1.00  0.00     0.091 C 
ATOM      4  C   UNL     1     125.758 134.384 121.414  1.00  0.00    -0.026 C 
ATOM      5  C   UNL     1     126.275 134.962 123.957  1.00  0.00     0.061 C 
ATOM      6  C   UNL     1     128.541 134.658 120.856  1.00  0.00     0.102 C 
ATOM      7  C   UNL     1     127.524 134.858 119.717  1.00  0.00     0.116 C 
ATOM      8  C   UNL     1     124.949 134.353 124.243  1.00  0.00    -0.020 A 
ATOM      9  C   UNL     1     124.386 133.958 121.790  1.00  0.00    -0.011 A 
ATOM     10  C   UNL     1     126.098 134.594 120.125  1.00  0.00    -0.007 C 
ATOM     11  C   UNL     1     124.130 133.943 123.169  1.00  0.00     0.010 A 
ATOM     12  C   UNL     1     122.923 133.498 123.687  1.00  0.00     0.046 A 
ATOM     13  C   UNL     1     124.251 134.129 125.407  1.00  0.00     0.087 A 
ATOM     14  C   UNL     1     123.349 133.522 120.951  1.00  0.00     0.009 A 
ATOM     15  C   UNL     1     121.888 133.057 122.862  1.00  0.00     0.027 A 
ATOM     16  C   UNL     1     122.126 133.085 121.480  1.00  0.00     0.003 A 
ATOM     17  H   UNL     1     122.296 133.352 125.709  1.00  0.00     0.166 HD
ENDROOT
BRANCH   7  18
ATOM     18  C   UNL     1     127.979 134.106 118.452  1.00  0.00     0.230 C 
ATOM     19  O   UNL     1     128.767 134.687 117.692  1.00  0.00    -0.274 OA
ATOM     20  N   UNL     1     127.570 132.803 118.179  1.00  0.00    -0.343 N 
BRANCH  20  21
ATOM     21  C   UNL     1     128.164 132.145 117.010  1.00  0.00     0.116 C 
ATOM     22  C   UNL     1     129.432 131.389 117.378  1.00  0.00     0.027 C 
ENDBRANCH  20  21
BRANCH  20  23
ATOM     23  C   UNL     1     126.614 132.004 118.953  1.00  0.00     0.116 C 
ATOM     24  C   UNL     1     125.594 131.304 118.065  1.00  0.00     0.027 C 
ENDBRANCH  20  23
ENDBRANCH   7  18
BRANCH   1  25
ATOM     25  C   UNL     1     127.970 136.663 122.171  1.00  0.00     0.085 C 
BRANCH  25  26
ATOM     26  C   UNL     1     129.193 137.439 121.654  1.00  0.00     0.012 C 
ATOM     27  C   UNL     1     129.688 138.499 122.628  1.00  0.00     0.005 C 
ENDBRANCH  25  26
ENDBRANCH   1  25
TORSDOF 5
ENDMDL
MODEL 16
REMARK VINA RESULT:    -7.555      2.631      7.354
REMARK INTER + INTRA:         -10.544
REMARK INTER:                 -10.198
REMARK INTRA:                  -0.345
REMARK UNBOUND:                -0.780
REMARK SMILES CCCN1C[C@H](C(=O)N(CC)CC)C=C2c3cccc4[nH]cc(c34)C[C@H]21
REMARK SMILES IDX 4 1 21 2 26 3 15 4 25 5 5 6 6 7 23 8 16 9 14 10 24 11 20 12
REMARK SMILES IDX 22 13 17 14 19 15 18 16 7 18 8 19 9 20 10 21 11 22 12 23
REMARK SMILES IDX 13 24 3 25 2 26 1 27
REMARK H PARENT 21 17
ROOT
ATOM      1  N   UNL     1     125.594 134.713 123.022  1.00  0.00    -0.295 NA
ATOM      2  N   UNL     1     121.740 137.727 126.572  1.00  0.00    -0.361 N 
ATOM      3  C   UNL     1     124.829 135.811 123.704  1.00  0.00     0.091 C 
ATOM      4  C   UNL     1     125.731 136.885 124.401  1.00  0.00    -0.026 C 
ATOM      5  C   UNL     1     123.624 135.272 124.562  1.00  0.00     0.061 C 
ATOM      6  C   UNL     1     126.680 135.316 122.218  1.00  0.00     0.102 C 
ATOM      7  C   UNL     1     127.687 136.134 123.048  1.00  0.00     0.116 C 
ATOM      8  C   UNL     1     122.988 136.373 125.334  1.00  0.00    -0.020 A 
ATOM      9  C   UNL     1     125.068 137.843 125.323  1.00  0.00    -0.011 A 
ATOM     10  C   UNL     1     127.044 136.988 124.110  1.00  0.00    -0.007 C 
ATOM     11  C   UNL     1     123.748 137.515 125.666  1.00  0.00     0.010 A 
ATOM     12  C   UNL     1     122.967 138.344 126.456  1.00  0.00     0.046 A 
ATOM     13  C   UNL     1     121.743 136.525 125.899  1.00  0.00     0.087 A 
ATOM     14  C   UNL     1     125.575 139.044 125.842  1.00  0.00     0.009 A 
ATOM     15  C   UNL     1     123.459 139.544 126.972  1.00  0.00     0.027 A 
ATOM     16  C   UNL     1     124.784 139.872 126.651  1.00  0.00     0.003 A 
ATOM     17  H   UNL     1     120.959 138.098 127.094  1.00  0.00     0.166 HD
ENDROOT
BRANCH   7  18
ATOM     18  C   UNL     1     128.662 136.886 122.122  1.00  0.00     0.230 C 
ATOM     19  O   UNL     1     128.682 138.123 122.195  1.00  0.00    -0.274 OA
ATOM     20  N   UNL     1     129.530 136.218 121.262  1.00  0.00    -0.343 N 
BRANCH  20  21
ATOM     21  C   UNL     1     130.497 137.034 120.519  1.00  0.00     0.116 C 
ATOM     22  C   UNL     1     131.880 136.975 121.150  1.00  0.00     0.027 C 
ENDBRANCH  20  21
BRANCH  20  23
ATOM     23  C   UNL     1     129.595 134.771 121.031  1.00  0.00     0.116 C 
ATOM     24  C   UNL     1     129.160 134.390 119.623  1.00  0.00     0.027 C 
ENDBRANCH  20  23
ENDBRANCH   7  18
BRANCH   1  25
ATOM     25  C   UNL     1     126.076 133.671 123.950  1.00  0.00     0.085 C 
BRANCH  25  26
ATOM     26  C   UNL     1     126.723 132.437 123.297  1.00  0.00     0.012 C 
ATOM     27  C   UNL     1     126.129 132.096 121.937  1.00  0.00     0.005 C 
ENDBRANCH  25  26
ENDBRANCH   1  25
TORSDOF 5
ENDMDL
MODEL 17
REMARK VINA RESULT:    -7.527      2.095      4.111
REMARK INTER + INTRA:         -10.508
REMARK INTER:                  -9.974
REMARK INTRA:                  -0.534
REMARK UNBOUND:                -0.780
REMARK SMILES CCCN1C[C@H](C(=O)N(CC)CC)C=C2c3cccc4[nH]cc(c34)C[C@H]21
REMARK SMILES IDX 4 1 21 2 26 3 15 4 25 5 5 6 6 7 23 8 16 9 14 10 24 11 20 12
REMARK SMILES IDX 22 13 17 14 19 15 18 16 7 18 8 19 9 20 10 21 11 22 12 23
REMARK SMILES IDX 13 24 3 25 2 26 1 27
REMARK H PARENT 21 17
ROOT
ATOM      1  N   UNL     1     126.469 136.235 122.157  1.00  0.00    -0.295 NA
ATOM      2  N   UNL     1     128.108 133.756 116.893  1.00  0.00    -0.361 N 
ATOM      3  C   UNL     1     126.468 135.442 120.881  1.00  0.00     0.091 C 
ATOM      4  C   UNL     1     126.142 133.921 121.071  1.00  0.00    -0.026 C 
ATOM      5  C   UNL     1     127.705 135.764 119.962  1.00  0.00     0.061 C 
ATOM      6  C   UNL     1     125.258 135.890 122.934  1.00  0.00     0.102 C 
ATOM      7  C   UNL     1     125.169 134.401 123.317  1.00  0.00     0.116 C 
ATOM      8  C   UNL     1     127.744 134.854 118.786  1.00  0.00    -0.020 A 
ATOM      9  C   UNL     1     126.388 133.018 119.918  1.00  0.00    -0.011 A 
ATOM     10  C   UNL     1     125.581 133.466 122.210  1.00  0.00    -0.007 C 
ATOM     11  C   UNL     1     127.129 133.587 118.871  1.00  0.00     0.010 A 
ATOM     12  C   UNL     1     127.380 132.901 117.692  1.00  0.00     0.046 A 
ATOM     13  C   UNL     1     128.340 134.945 117.550  1.00  0.00     0.087 A 
ATOM     14  C   UNL     1     125.932 131.705 119.727  1.00  0.00     0.009 A 
ATOM     15  C   UNL     1     126.925 131.597 117.490  1.00  0.00     0.027 A 
ATOM     16  C   UNL     1     126.200 131.012 118.538  1.00  0.00     0.003 A 
ATOM     17  H   UNL     1     128.439 133.532 115.965  1.00  0.00     0.166 HD
ENDROOT
BRANCH   7  18
ATOM     18  C   UNL     1     123.797 134.088 123.944  1.00  0.00     0.230 C 
ATOM     19  O   UNL     1     122.984 133.455 123.256  1.00  0.00    -0.274 OA
ATOM     20  N   UNL     1     123.480 134.453 125.251  1.00  0.00    -0.343 N 
BRANCH  20  21
ATOM     21  C   UNL     1     122.192 133.994 125.781  1.00  0.00     0.116 C 
ATOM     22  C   UNL     1     121.819 134.727 127.061  1.00  0.00     0.027 C 
ENDBRANCH  20  21
BRANCH  20  23
ATOM     23  C   UNL     1     124.313 135.237 126.169  1.00  0.00     0.116 C 
ATOM     24  C   UNL     1     125.462 134.422 126.746  1.00  0.00     0.027 C 
ENDBRANCH  20  23
ENDBRANCH   7  18
BRANCH   1  25
ATOM     25  C   UNL     1     127.714 136.090 122.936  1.00  0.00     0.085 C 
BRANCH  25  26
ATOM     26  C   UNL     1     128.449 137.398 123.277  1.00  0.00     0.012 C 
ATOM     27  C   UNL     1     129.457 137.815 122.215  1.00  0.00     0.005 C 
ENDBRANCH  25  26
ENDBRANCH   1  25
TORSDOF 5
ENDMDL
MODEL 18
REMARK VINA RESULT:    -7.527      2.152      4.804
REMARK INTER + INTRA:         -10.507
REMARK INTER:                 -10.856
REMARK INTRA:                   0.349
REMARK UNBOUND:                -0.780
REMARK SMILES CCCN1C[C@H](C(=O)N(CC)CC)C=C2c3cccc4[nH]cc(c34)C[C@H]21
REMARK SMILES IDX 4 1 21 2 26 3 15 4 25 5 5 6 6 7 23 8 16 9 14 10 24 11 20 12
REMARK SMILES IDX 22 13 17 14 19 15 18 16 7 18 8 19 9 20 10 21 11 22 12 23
REMARK SMILES IDX 13 24 3 25 2 26 1 27
REMARK H PARENT 21 17
ROOT
ATOM      1  N   UNL     1     126.073 135.908 123.430  1.00  0.00    -0.295 NA
ATOM      2  N   UNL     1     129.802 135.867 118.672  1.00  0.00    -0.361 N 
ATOM      3  C   UNL     1     126.635 135.737 122.048  1.00  0.00     0.091 C 
ATOM      4  C   UNL     1     126.474 134.292 121.463  1.00  0.00    -0.026 C 
ATOM      5  C   UNL     1     128.062 136.382 121.885  1.00  0.00     0.061 C 
ATOM      6  C   UNL     1     124.724 135.302 123.475  1.00  0.00     0.102 C 
ATOM      7  C   UNL     1     124.708 133.796 123.155  1.00  0.00     0.116 C 
ATOM      8  C   UNL     1     128.641 136.061 120.553  1.00  0.00    -0.020 A 
ATOM      9  C   UNL     1     127.236 133.961 120.232  1.00  0.00    -0.011 A 
ATOM     10  C   UNL     1     125.611 133.411 122.012  1.00  0.00    -0.007 C 
ATOM     11  C   UNL     1     128.215 134.899 119.875  1.00  0.00     0.010 A 
ATOM     12  C   UNL     1     128.961 134.775 118.712  1.00  0.00     0.046 A 
ATOM     13  C   UNL     1     129.620 136.653 119.789  1.00  0.00     0.087 A 
ATOM     14  C   UNL     1     127.061 132.870 119.367  1.00  0.00     0.009 A 
ATOM     15  C   UNL     1     128.791 133.698 117.842  1.00  0.00     0.027 A 
ATOM     16  C   UNL     1     127.827 132.744 118.200  1.00  0.00     0.003 A 
ATOM     17  H   UNL     1     130.469 136.050 117.936  1.00  0.00     0.166 HD
ENDROOT
BRANCH   7  18
ATOM     18  C   UNL     1     123.260 133.288 123.028  1.00  0.00     0.230 C 
ATOM     19  O   UNL     1     122.504 133.463 123.994  1.00  0.00    -0.274 OA
ATOM     20  N   UNL     1     122.783 132.695 121.860  1.00  0.00    -0.343 N 
BRANCH  20  21
ATOM     21  C   UNL     1     121.355 132.364 121.812  1.00  0.00     0.116 C 
ATOM     22  C   UNL     1     120.489 133.614 121.816  1.00  0.00     0.027 C 
ENDBRANCH  20  21
BRANCH  20  23
ATOM     23  C   UNL     1     123.560 132.382 120.656  1.00  0.00     0.116 C 
ATOM     24  C   UNL     1     123.313 133.379 119.533  1.00  0.00     0.027 C 
ENDBRANCH  20  23
ENDBRANCH   7  18
BRANCH   1  25
ATOM     25  C   UNL     1     126.966 135.406 124.492  1.00  0.00     0.085 C 
BRANCH  25  26
ATOM     26  C   UNL     1     126.500 135.660 125.936  1.00  0.00     0.012 C 
ATOM     27  C   UNL     1     126.295 134.380 126.736  1.00  0.00     0.005 C 
ENDBRANCH  25  26
ENDBRANCH   1  25
TORSDOF 5
ENDMDL
MODEL 19
REMARK VINA RESULT:    -7.296      2.178      6.366
REMARK INTER + INTRA:         -10.209
REMARK INTER:                  -9.968
REMARK INTRA:                  -0.240
REMARK UNBOUND:                -0.780
REMARK SMILES CCCN1C[C@H](C(=O)N(CC)CC)C=C2c3cccc4[nH]cc(c34)C[C@H]21
REMARK SMILES IDX 4 1 21 2 26 3 15 4 25 5 5 6 6 7 23 8 16 9 14 10 24 11 20 12
REMARK SMILES IDX 22 13 17 14 19 15 18 16 7 18 8 19 9 20 10 21 11 22 12 23
REMARK SMILES IDX 13 24 3 25 2 26 1 27
REMARK H PARENT 21 17
ROOT
ATOM      1  N   UNL     1     124.560 133.250 119.627  1.00  0.00    -0.295 NA
ATOM      2  N   UNL     1     122.427 134.376 125.169  1.00  0.00    -0.361 N 
ATOM      3  C   UNL     1     124.211 133.928 120.920  1.00  0.00     0.091 C 
ATOM      4  C   UNL     1     125.437 134.554 121.669  1.00  0.00    -0.026 C 
ATOM      5  C   UNL     1     123.231 133.077 121.811  1.00  0.00     0.061 C 
ATOM      6  C   UNL     1     125.453 134.137 118.848  1.00  0.00     0.102 C 
ATOM      7  C   UNL     1     126.775 134.471 119.564  1.00  0.00     0.116 C 
ATOM      8  C   UNL     1     123.031 133.714 123.140  1.00  0.00    -0.020 A 
ATOM      9  C   UNL     1     125.231 134.997 123.071  1.00  0.00    -0.011 A 
ATOM     10  C   UNL     1     126.611 134.758 121.034  1.00  0.00    -0.007 C 
ATOM     11  C   UNL     1     124.030 134.569 123.655  1.00  0.00     0.010 A 
ATOM     12  C   UNL     1     123.653 134.959 124.931  1.00  0.00     0.046 A 
ATOM     13  C   UNL     1     122.042 133.612 124.090  1.00  0.00     0.087 A 
ATOM     14  C   UNL     1     126.053 135.822 123.853  1.00  0.00     0.009 A 
ATOM     15  C   UNL     1     124.461 135.785 125.714  1.00  0.00     0.027 A 
ATOM     16  C   UNL     1     125.674 136.203 125.148  1.00  0.00     0.003 A 
ATOM     17  H   UNL     1     121.899 134.480 126.025  1.00  0.00     0.166 HD
ENDROOT
BRANCH   7  18
ATOM     18  C   UNL     1     127.552 135.547 118.783  1.00  0.00     0.230 C 
ATOM     19  O   UNL     1     126.895 136.340 118.093  1.00  0.00    -0.274 OA
ATOM     20  N   UNL     1     128.936 135.672 118.873  1.00  0.00    -0.343 N 
BRANCH  20  21
ATOM     21  C   UNL     1     129.553 136.810 118.182  1.00  0.00     0.116 C 
ATOM     22  C   UNL     1     129.203 138.130 118.854  1.00  0.00     0.027 C 
ENDBRANCH  20  21
BRANCH  20  23
ATOM     23  C   UNL     1     129.850 134.790 119.607  1.00  0.00     0.116 C 
ATOM     24  C   UNL     1     130.304 135.399 120.927  1.00  0.00     0.027 C 
ENDBRANCH  20  23
ENDBRANCH   7  18
BRANCH   1  25
ATOM     25  C   UNL     1     125.111 131.892 119.807  1.00  0.00     0.085 C 
BRANCH  25  26
ATOM     26  C   UNL     1     126.055 131.398 118.697  1.00  0.00     0.012 C 
ATOM     27  C   UNL     1     125.328 131.017 117.415  1.00  0.00     0.005 C 
ENDBRANCH  25  26
ENDBRANCH   1  25
TORSDOF 5
ENDMDL
MODEL 20
REMARK VINA RESULT:    -7.285      2.422      7.462
REMARK INTER + INTRA:         -10.195
REMARK INTER:                  -9.892
REMARK INTRA:                  -0.303
REMARK UNBOUND:                -0.780
REMARK SMILES CCCN1C[C@H](C(=O)N(CC)CC)C=C2c3cccc4[nH]cc(c34)C[C@H]21
REMARK SMILES IDX 4 1 21 2 26 3 15 4 25 5 5 6 6 7 23 8 16 9 14 10 24 11 20 12
REMARK SMILES IDX 22 13 17 14 19 15 18 16 7 18 8 19 9 20 10 21 11 22 12 23
REMARK SMILES IDX 13 24 3 25 2 26 1 27
REMARK H PARENT 21 17
ROOT
ATOM      1  N   UNL     1     121.919 134.604 125.064  1.00  0.00    -0.295 NA
ATOM      2  N   UNL     1     123.578 140.033 127.140  1.00  0.00    -0.361 N 
ATOM      3  C   UNL     1     122.530 135.971 125.181  1.00  0.00     0.091 C 
ATOM      4  C   UNL     1     124.076 136.007 124.929  1.00  0.00    -0.026 C 
ATOM      5  C   UNL     1     122.028 136.757 126.449  1.00  0.00     0.061 C 
ATOM      6  C   UNL     1     122.423 133.960 123.830  1.00  0.00     0.102 C 
ATOM      7  C   UNL     1     123.953 133.784 123.803  1.00  0.00     0.116 C 
ATOM      8  C   UNL     1     122.767 138.038 126.607  1.00  0.00    -0.020 A 
ATOM      9  C   UNL     1     124.801 137.251 125.292  1.00  0.00    -0.011 A 
ATOM     10  C   UNL     1     124.708 134.977 124.329  1.00  0.00    -0.007 C 
ATOM     11  C   UNL     1     124.062 138.163 126.059  1.00  0.00     0.010 A 
ATOM     12  C   UNL     1     124.568 139.403 126.416  1.00  0.00     0.046 A 
ATOM     13  C   UNL     1     122.481 139.211 127.267  1.00  0.00     0.087 A 
ATOM     14  C   UNL     1     126.096 137.643 124.921  1.00  0.00     0.009 A 
ATOM     15  C   UNL     1     125.853 139.805 126.046  1.00  0.00     0.027 A 
ATOM     16  C   UNL     1     126.608 138.894 125.295  1.00  0.00     0.003 A 
ATOM     17  H   UNL     1     123.659 140.959 127.536  1.00  0.00     0.166 HD
ENDROOT
BRANCH   7  18
ATOM     18  C   UNL     1     124.412 133.294 122.416  1.00  0.00     0.230 C 
ATOM     19  O   UNL     1     123.613 133.406 121.475  1.00  0.00    -0.274 OA
ATOM     20  N   UNL     1     125.691 132.786 122.197  1.00  0.00    -0.343 N 
BRANCH  20  21
ATOM     21  C   UNL     1     126.056 132.466 120.813  1.00  0.00     0.116 C 
ATOM     22  C   UNL     1     126.565 133.692 120.071  1.00  0.00     0.027 C 
ENDBRANCH  20  21
BRANCH  20  23
ATOM     23  C   UNL     1     126.726 132.552 123.210  1.00  0.00     0.116 C 
ATOM     24  C   UNL     1     127.831 133.597 123.158  1.00  0.00     0.027 C 
ENDBRANCH  20  23
ENDBRANCH   7  18
BRANCH   1  25
ATOM     25  C   UNL     1     122.109 133.772 126.267  1.00  0.00     0.085 C 
BRANCH  25  26
ATOM     26  C   UNL     1     120.861 133.562 127.143  1.00  0.00     0.012 C 
ATOM     27  C   UNL     1     120.967 134.226 128.509  1.00  0.00     0.005 C 
ENDBRANCH  25  26
ENDBRANCH   1  25
TORSDOF 5
ENDMDL
