MODEL 1
REMARK VINA RESULT:   -10.032      0.000      0.000
REMARK INTER + INTRA:         -13.466
REMARK INTER:                 -12.964
REMARK INTRA:                  -0.501
REMARK UNBOUND:                -0.501
REMARK SMILES CCCN1C[C@H](C(=O)N(CC)CC)C=C2c3cccc4[nH]cc(c34)C[C@H]21
REMARK SMILES IDX 4 1 21 2 26 3 15 4 25 5 5 6 6 7 23 8 16 9 14 10 24 11 20 12
REMARK SMILES IDX 22 13 17 14 19 15 18 16 7 18 8 19 9 20 10 21 11 22 12 23
REMARK SMILES IDX 13 24 3 25 2 26 1 27
REMARK H PARENT 21 17
ROOT
ATOM      1  N   UNL     1     106.127 136.585 126.722  1.00  0.00    -0.295 NA
ATOM      2  N   UNL     1     108.802 141.988 126.289  1.00  0.00    -0.361 N 
ATOM      3  C   UNL     1     106.944 137.747 126.236  1.00  0.00     0.091 C 
ATOM      4  C   UNL     1     108.439 137.397 125.925  1.00  0.00    -0.026 C 
ATOM      5  C   UNL     1     106.713 139.053 127.085  1.00  0.00     0.061 C 
ATOM      6  C   UNL     1     106.386 135.420 125.846  1.00  0.00     0.102 C 
ATOM      7  C   UNL     1     107.859 134.972 125.827  1.00  0.00     0.116 C 
ATOM      8  C   UNL     1     107.647 140.132 126.666  1.00  0.00    -0.020 A 
ATOM      9  C   UNL     1     109.378 138.527 125.708  1.00  0.00    -0.011 A 
ATOM     10  C   UNL     1     108.839 136.116 125.779  1.00  0.00    -0.007 C 
ATOM     11  C   UNL     1     108.875 139.788 126.060  1.00  0.00     0.010 A 
ATOM     12  C   UNL     1     109.598 140.952 125.849  1.00  0.00     0.046 A 
ATOM     13  C   UNL     1     107.616 141.501 126.794  1.00  0.00     0.087 A 
ATOM     14  C   UNL     1     110.666 138.494 125.152  1.00  0.00     0.009 A 
ATOM     15  C   UNL     1     110.877 140.931 125.291  1.00  0.00     0.027 A 
ATOM     16  C   UNL     1     111.397 139.674 124.953  1.00  0.00     0.003 A 
ATOM     17  H   UNL     1     109.064 142.964 126.263  1.00  0.00     0.166 HD
ENDROOT
BRANCH   7  18
ATOM     18  C   UNL     1     108.079 133.894 124.749  1.00  0.00     0.230 C 
ATOM     19  O   UNL     1     108.559 134.256 123.666  1.00  0.00    -0.274 OA
ATOM     20  N   UNL     1     107.799 132.548 124.981  1.00  0.00    -0.343 N 
BRANCH  20  21
ATOM     21  C   UNL     1     108.164 131.597 123.925  1.00  0.00     0.116 C 
ATOM     22  C   UNL     1     108.893 130.387 124.489  1.00  0.00     0.027 C 
ENDBRANCH  20  21
BRANCH  20  23
ATOM     23  C   UNL     1     107.191 131.975 126.185  1.00  0.00     0.116 C 
ATOM     24  C   UNL     1     108.151 131.960 127.366  1.00  0.00     0.027 C 
ENDBRANCH  20  23
ENDBRANCH   7  18
BRANCH   1  25
ATOM     25  C   UNL     1     106.328 136.284 128.153  1.00  0.00     0.085 C 
BRANCH  25  26
ATOM     26  C   UNL     1     105.275 135.370 128.802  1.00  0.00     0.012 C 
ATOM     27  C   UNL     1     103.844 135.773 128.473  1.00  0.00     0.005 C 
ENDBRANCH  25  26
ENDBRANCH   1  25
TORSDOF 5
ENDMDL
MODEL 2
REMARK VINA RESULT:    -9.512      2.129      5.197
REMARK INTER + INTRA:         -12.794
REMARK INTER:                 -12.590
REMARK INTRA:                  -0.205
REMARK UNBOUND:                -0.501
REMARK SMILES CCCN1C[C@H](C(=O)N(CC)CC)C=C2c3cccc4[nH]cc(c34)C[C@H]21
REMARK SMILES IDX 4 1 21 2 26 3 15 4 25 5 5 6 6 7 23 8 16 9 14 10 24 11 20 12
REMARK SMILES IDX 22 13 17 14 19 15 18 16 7 18 8 19 9 20 10 21 11 22 12 23
REMARK SMILES IDX 13 24 3 25 2 26 1 27
REMARK H PARENT 21 17
ROOT
ATOM      1  N   UNL     1     107.797 135.389 126.182  1.00  0.00    -0.295 NA
ATOM      2  N   UNL     1     111.252 140.217 125.048  1.00  0.00    -0.361 N 
ATOM      3  C   UNL     1     108.488 136.718 126.293  1.00  0.00     0.091 C 
ATOM      4  C   UNL     1     107.519 137.928 126.522  1.00  0.00    -0.026 C 
ATOM      5  C   UNL     1     109.589 136.927 125.188  1.00  0.00     0.061 C 
ATOM      6  C   UNL     1     106.808 135.273 127.278  1.00  0.00     0.102 C 
ATOM      7  C   UNL     1     105.719 136.362 127.250  1.00  0.00     0.116 C 
ATOM      8  C   UNL     1     110.141 138.307 125.242  1.00  0.00    -0.020 A 
ATOM      9  C   UNL     1     108.081 139.295 126.368  1.00  0.00    -0.011 A 
ATOM     10  C   UNL     1     106.246 137.736 126.925  1.00  0.00    -0.007 C 
ATOM     11  C   UNL     1     109.354 139.347 125.782  1.00  0.00     0.010 A 
ATOM     12  C   UNL     1     110.048 140.539 125.636  1.00  0.00     0.046 A 
ATOM     13  C   UNL     1     111.318 138.864 124.799  1.00  0.00     0.087 A 
ATOM     14  C   UNL     1     107.526 140.516 126.779  1.00  0.00     0.009 A 
ATOM     15  C   UNL     1     109.507 141.758 126.048  1.00  0.00     0.027 A 
ATOM     16  C   UNL     1     108.226 141.719 126.618  1.00  0.00     0.003 A 
ATOM     17  H   UNL     1     111.973 140.886 124.816  1.00  0.00     0.166 HD
ENDROOT
BRANCH   7  18
ATOM     18  C   UNL     1     104.855 136.290 128.523  1.00  0.00     0.230 C 
ATOM     19  O   UNL     1     104.897 135.244 129.185  1.00  0.00    -0.274 OA
ATOM     20  N   UNL     1     104.086 137.368 128.957  1.00  0.00    -0.343 N 
BRANCH  20  21
ATOM     21  C   UNL     1     103.403 137.227 130.247  1.00  0.00     0.116 C 
ATOM     22  C   UNL     1     101.918 136.947 130.066  1.00  0.00     0.027 C 
ENDBRANCH  20  21
BRANCH  20  23
ATOM     23  C   UNL     1     103.901 138.648 128.264  1.00  0.00     0.116 C 
ATOM     24  C   UNL     1     104.263 139.837 129.142  1.00  0.00     0.027 C 
ENDBRANCH  20  23
ENDBRANCH   7  18
BRANCH   1  25
ATOM     25  C   UNL     1     107.213 135.141 124.850  1.00  0.00     0.085 C 
BRANCH  25  26
ATOM     26  C   UNL     1     107.827 133.978 124.053  1.00  0.00     0.012 C 
ATOM     27  C   UNL     1     107.699 132.633 124.758  1.00  0.00     0.005 C 
ENDBRANCH  25  26
ENDBRANCH   1  25
TORSDOF 5
ENDMDL
MODEL 3
REMARK VINA RESULT:    -9.289      2.195      4.896
REMARK INTER + INTRA:         -12.506
REMARK INTER:                 -11.912
REMARK INTRA:                  -0.594
REMARK UNBOUND:                -0.501
REMARK SMILES CCCN1C[C@H](C(=O)N(CC)CC)C=C2c3cccc4[nH]cc(c34)C[C@H]21
REMARK SMILES IDX 4 1 21 2 26 3 15 4 25 5 5 6 6 7 23 8 16 9 14 10 24 11 20 12
REMARK SMILES IDX 22 13 17 14 19 15 18 16 7 18 8 19 9 20 10 21 11 22 12 23
REMARK SMILES IDX 13 24 3 25 2 26 1 27
REMARK H PARENT 21 17
ROOT
ATOM      1  N   UNL     1     107.607 135.741 126.344  1.00  0.00    -0.295 NA
ATOM      2  N   UNL     1     111.606 140.031 124.882  1.00  0.00    -0.361 N 
ATOM      3  C   UNL     1     108.448 136.984 126.361  1.00  0.00     0.091 C 
ATOM      4  C   UNL     1     107.628 138.313 126.486  1.00  0.00    -0.026 C 
ATOM      5  C   UNL     1     109.568 136.978 125.255  1.00  0.00     0.061 C 
ATOM      6  C   UNL     1     106.609 135.825 127.435  1.00  0.00     0.102 C 
ATOM      7  C   UNL     1     105.656 137.028 127.312  1.00  0.00     0.116 C 
ATOM      8  C   UNL     1     110.278 138.284 125.209  1.00  0.00    -0.020 A 
ATOM      9  C   UNL     1     108.346 139.589 126.234  1.00  0.00    -0.011 A 
ATOM     10  C   UNL     1     106.340 138.302 126.889  1.00  0.00    -0.007 C 
ATOM     11  C   UNL     1     109.617 139.447 125.660  1.00  0.00     0.010 A 
ATOM     12  C   UNL     1     110.446 140.535 125.432  1.00  0.00     0.046 A 
ATOM     13  C   UNL     1     111.513 138.665 124.737  1.00  0.00     0.087 A 
ATOM     14  C   UNL     1     107.937 140.894 126.546  1.00  0.00     0.009 A 
ATOM     15  C   UNL     1     110.051 141.837 125.744  1.00  0.00     0.027 A 
ATOM     16  C   UNL     1     108.774 141.992 126.301  1.00  0.00     0.003 A 
ATOM     17  H   UNL     1     112.400 140.592 124.608  1.00  0.00     0.166 HD
ENDROOT
BRANCH   7  18
ATOM     18  C   UNL     1     104.787 137.156 128.578  1.00  0.00     0.230 C 
ATOM     19  O   UNL     1     105.199 137.896 129.483  1.00  0.00    -0.274 OA
ATOM     20  N   UNL     1     103.558 136.511 128.700  1.00  0.00    -0.343 N 
BRANCH  20  21
ATOM     21  C   UNL     1     102.764 136.805 129.898  1.00  0.00     0.116 C 
ATOM     22  C   UNL     1     101.309 136.398 129.719  1.00  0.00     0.027 C 
ENDBRANCH  20  21
BRANCH  20  23
ATOM     23  C   UNL     1     102.960 135.575 127.742  1.00  0.00     0.116 C 
ATOM     24  C   UNL     1     103.627 134.208 127.777  1.00  0.00     0.027 C 
ENDBRANCH  20  23
ENDBRANCH   7  18
BRANCH   1  25
ATOM     25  C   UNL     1     106.999 135.461 125.029  1.00  0.00     0.085 C 
BRANCH  25  26
ATOM     26  C   UNL     1     107.509 134.201 124.308  1.00  0.00     0.012 C 
ATOM     27  C   UNL     1     107.718 133.017 125.242  1.00  0.00     0.005 C 
ENDBRANCH  25  26
ENDBRANCH   1  25
TORSDOF 5
ENDMDL
MODEL 4
REMARK VINA RESULT:    -8.944      1.679      6.886
REMARK INTER + INTRA:         -12.059
REMARK INTER:                 -11.333
REMARK INTRA:                  -0.726
REMARK UNBOUND:                -0.501
REMARK SMILES CCCN1C[C@H](C(=O)N(CC)CC)C=C2c3cccc4[nH]cc(c34)C[C@H]21
REMARK SMILES IDX 4 1 21 2 26 3 15 4 25 5 5 6 6 7 23 8 16 9 14 10 24 11 20 12
REMARK SMILES IDX 22 13 17 14 19 15 18 16 7 18 8 19 9 20 10 21 11 22 12 23
REMARK SMILES IDX 13 24 3 25 2 26 1 27
REMARK H PARENT 21 17
ROOT
ATOM      1  N   UNL     1     107.257 136.544 128.423  1.00  0.00    -0.295 NA
ATOM      2  N   UNL     1     107.662 130.848 126.440  1.00  0.00    -0.361 N 
ATOM      3  C   UNL     1     107.710 135.299 127.716  1.00  0.00     0.091 C 
ATOM      4  C   UNL     1     107.847 135.456 126.163  1.00  0.00    -0.026 C 
ATOM      5  C   UNL     1     106.951 134.009 128.205  1.00  0.00     0.061 C 
ATOM      6  C   UNL     1     108.047 137.691 127.922  1.00  0.00     0.102 C 
ATOM      7  C   UNL     1     107.892 137.938 126.410  1.00  0.00     0.116 C 
ATOM      8  C   UNL     1     107.321 132.829 127.379  1.00  0.00    -0.020 A 
ATOM      9  C   UNL     1     108.018 134.218 125.360  1.00  0.00    -0.011 A 
ATOM     10  C   UNL     1     107.892 136.676 125.587  1.00  0.00    -0.007 C 
ATOM     11  C   UNL     1     107.779 133.025 126.058  1.00  0.00     0.010 A 
ATOM     12  C   UNL     1     107.969 131.782 125.474  1.00  0.00     0.046 A 
ATOM     13  C   UNL     1     107.261 131.473 127.600  1.00  0.00     0.087 A 
ATOM     14  C   UNL     1     108.436 134.096 124.026  1.00  0.00     0.009 A 
ATOM     15  C   UNL     1     108.390 131.650 124.150  1.00  0.00     0.027 A 
ATOM     16  C   UNL     1     108.613 132.836 123.437  1.00  0.00     0.003 A 
ATOM     17  H   UNL     1     107.706 129.848 126.305  1.00  0.00     0.166 HD
ENDROOT
BRANCH   7  18
ATOM     18  C   UNL     1     108.890 139.012 125.936  1.00  0.00     0.230 C 
ATOM     19  O   UNL     1     109.782 138.659 125.151  1.00  0.00    -0.274 OA
ATOM     20  N   UNL     1     108.783 140.346 126.326  1.00  0.00    -0.343 N 
BRANCH  20  21
ATOM     21  C   UNL     1     109.714 141.299 125.715  1.00  0.00     0.116 C 
ATOM     22  C   UNL     1     110.777 141.756 126.703  1.00  0.00     0.027 C 
ENDBRANCH  20  21
BRANCH  20  23
ATOM     23  C   UNL     1     107.816 140.906 127.277  1.00  0.00     0.116 C 
ATOM     24  C   UNL     1     106.954 141.992 126.651  1.00  0.00     0.027 C 
ENDBRANCH  20  23
ENDBRANCH   7  18
BRANCH   1  25
ATOM     25  C   UNL     1     105.801 136.768 128.342  1.00  0.00     0.085 C 
BRANCH  25  26
ATOM     26  C   UNL     1     105.279 138.046 129.021  1.00  0.00     0.012 C 
ATOM     27  C   UNL     1     104.592 139.003 128.055  1.00  0.00     0.005 C 
ENDBRANCH  25  26
ENDBRANCH   1  25
TORSDOF 5
ENDMDL
MODEL 5
REMARK VINA RESULT:    -8.904      2.324      7.424
REMARK INTER + INTRA:         -12.008
REMARK INTER:                 -11.390
REMARK INTRA:                  -0.619
REMARK UNBOUND:                -0.501
REMARK SMILES CCCN1C[C@H](C(=O)N(CC)CC)C=C2c3cccc4[nH]cc(c34)C[C@H]21
REMARK SMILES IDX 4 1 21 2 26 3 15 4 25 5 5 6 6 7 23 8 16 9 14 10 24 11 20 12
REMARK SMILES IDX 22 13 17 14 19 15 18 16 7 18 8 19 9 20 10 21 11 22 12 23
REMARK SMILES IDX 13 24 3 25 2 26 1 27
REMARK H PARENT 21 17
ROOT
ATOM      1  N   UNL     1     106.824 136.253 125.426  1.00  0.00    -0.295 NA
ATOM      2  N   UNL     1     108.755 130.731 123.902  1.00  0.00    -0.361 N 
ATOM      3  C   UNL     1     106.988 134.762 125.338  1.00  0.00     0.091 C 
ATOM      4  C   UNL     1     107.229 134.061 126.718  1.00  0.00    -0.026 C 
ATOM      5  C   UNL     1     107.949 134.321 124.173  1.00  0.00     0.061 C 
ATOM      6  C   UNL     1     105.882 136.566 126.523  1.00  0.00     0.102 C 
ATOM      7  C   UNL     1     106.351 136.072 127.905  1.00  0.00     0.116 C 
ATOM      8  C   UNL     1     108.200 132.856 124.216  1.00  0.00    -0.020 A 
ATOM      9  C   UNL     1     107.673 132.643 126.699  1.00  0.00    -0.011 A 
ATOM     10  C   UNL     1     106.964 134.696 127.879  1.00  0.00    -0.007 C 
ATOM     11  C   UNL     1     108.074 132.168 125.442  1.00  0.00     0.010 A 
ATOM     12  C   UNL     1     108.444 130.847 125.240  1.00  0.00     0.046 A 
ATOM     13  C   UNL     1     108.616 131.947 123.271  1.00  0.00     0.087 A 
ATOM     14  C   UNL     1     107.687 131.721 127.756  1.00  0.00     0.009 A 
ATOM     15  C   UNL     1     108.455 129.920 126.284  1.00  0.00     0.027 A 
ATOM     16  C   UNL     1     108.074 130.390 127.549  1.00  0.00     0.003 A 
ATOM     17  H   UNL     1     109.061 129.877 123.457  1.00  0.00     0.166 HD
ENDROOT
BRANCH   7  18
ATOM     18  C   UNL     1     105.235 136.258 128.949  1.00  0.00     0.230 C 
ATOM     19  O   UNL     1     104.692 135.237 129.396  1.00  0.00    -0.274 OA
ATOM     20  N   UNL     1     104.867 137.515 129.424  1.00  0.00    -0.343 N 
BRANCH  20  21
ATOM     21  C   UNL     1     103.878 137.560 130.507  1.00  0.00     0.116 C 
ATOM     22  C   UNL     1     102.582 138.216 130.055  1.00  0.00     0.027 C 
ENDBRANCH  20  21
BRANCH  20  23
ATOM     23  C   UNL     1     105.382 138.810 128.966  1.00  0.00     0.116 C 
ATOM     24  C   UNL     1     106.638 139.231 129.716  1.00  0.00     0.027 C 
ENDBRANCH  20  23
ENDBRANCH   7  18
BRANCH   1  25
ATOM     25  C   UNL     1     108.105 136.977 125.542  1.00  0.00     0.085 C 
BRANCH  25  26
ATOM     26  C   UNL     1     108.009 138.439 126.011  1.00  0.00     0.012 C 
ATOM     27  C   UNL     1     109.328 139.193 125.903  1.00  0.00     0.005 C 
ENDBRANCH  25  26
ENDBRANCH   1  25
TORSDOF 5
ENDMDL
MODEL 6
REMARK VINA RESULT:    -8.722      4.985      8.979
REMARK INTER + INTRA:         -11.772
REMARK INTER:                 -11.050
REMARK INTRA:                  -0.722
REMARK UNBOUND:                -0.501
REMARK SMILES CCCN1C[C@H](C(=O)N(CC)CC)C=C2c3cccc4[nH]cc(c34)C[C@H]21
REMARK SMILES IDX 4 1 21 2 26 3 15 4 25 5 5 6 6 7 23 8 16 9 14 10 24 11 20 12
REMARK SMILES IDX 22 13 17 14 19 15 18 16 7 18 8 19 9 20 10 21 11 22 12 23
REMARK SMILES IDX 13 24 3 25 2 26 1 27
REMARK H PARENT 21 17
ROOT
ATOM      1  N   UNL     1     109.122 129.377 120.709  1.00  0.00    -0.295 NA
ATOM      2  N   UNL     1     114.101 131.495 118.015  1.00  0.00    -0.361 N 
ATOM      3  C   UNL     1     110.492 129.942 120.464  1.00  0.00     0.091 C 
ATOM      4  C   UNL     1     110.777 131.286 121.216  1.00  0.00    -0.026 C 
ATOM      5  C   UNL     1     110.900 129.912 118.944  1.00  0.00     0.061 C 
ATOM      6  C   UNL     1     108.843 129.417 122.162  1.00  0.00     0.102 C 
ATOM      7  C   UNL     1     108.871 130.835 122.762  1.00  0.00     0.116 C 
ATOM      8  C   UNL     1     112.194 130.613 118.728  1.00  0.00    -0.020 A 
ATOM      9  C   UNL     1     111.987 132.051 120.820  1.00  0.00    -0.011 A 
ATOM     10  C   UNL     1     109.997 131.690 122.241  1.00  0.00    -0.007 C 
ATOM     11  C   UNL     1     112.601 131.612 119.638  1.00  0.00     0.010 A 
ATOM     12  C   UNL     1     113.781 132.172 119.173  1.00  0.00     0.046 A 
ATOM     13  C   UNL     1     113.141 130.549 117.732  1.00  0.00     0.087 A 
ATOM     14  C   UNL     1     112.612 133.106 121.502  1.00  0.00     0.009 A 
ATOM     15  C   UNL     1     114.414 133.217 119.847  1.00  0.00     0.027 A 
ATOM     16  C   UNL     1     113.798 133.676 121.020  1.00  0.00     0.003 A 
ATOM     17  H   UNL     1     114.916 131.683 117.447  1.00  0.00     0.166 HD
ENDROOT
BRANCH   7  18
ATOM     18  C   UNL     1     108.770 130.772 124.297  1.00  0.00     0.230 C 
ATOM     19  O   UNL     1     109.245 129.776 124.862  1.00  0.00    -0.274 OA
ATOM     20  N   UNL     1     108.213 131.806 125.046  1.00  0.00    -0.343 N 
BRANCH  20  21
ATOM     21  C   UNL     1     108.283 131.689 126.506  1.00  0.00     0.116 C 
ATOM     22  C   UNL     1     107.159 132.459 127.185  1.00  0.00     0.027 C 
ENDBRANCH  20  21
BRANCH  20  23
ATOM     23  C   UNL     1     107.575 133.020 124.525  1.00  0.00     0.116 C 
ATOM     24  C   UNL     1     108.560 134.170 124.370  1.00  0.00     0.027 C 
ENDBRANCH  20  23
ENDBRANCH   7  18
BRANCH   1  25
ATOM     25  C   UNL     1     108.068 130.023 119.903  1.00  0.00     0.085 C 
BRANCH  25  26
ATOM     26  C   UNL     1     106.620 129.686 120.296  1.00  0.00     0.012 C 
ATOM     27  C   UNL     1     105.621 130.760 119.887  1.00  0.00     0.005 C 
ENDBRANCH  25  26
ENDBRANCH   1  25
TORSDOF 5
ENDMDL
MODEL 7
REMARK VINA RESULT:    -8.615      3.404      6.321
REMARK INTER + INTRA:         -11.635
REMARK INTER:                 -10.871
REMARK INTRA:                  -0.764
REMARK UNBOUND:                -0.501
REMARK SMILES CCCN1C[C@H](C(=O)N(CC)CC)C=C2c3cccc4[nH]cc(c34)C[C@H]21
REMARK SMILES IDX 4 1 21 2 26 3 15 4 25 5 5 6 6 7 23 8 16 9 14 10 24 11 20 12
REMARK SMILES IDX 22 13 17 14 19 15 18 16 7 18 8 19 9 20 10 21 11 22 12 23
REMARK SMILES IDX 13 24 3 25 2 26 1 27
REMARK H PARENT 21 17
ROOT
ATOM      1  N   UNL     1     105.528 136.794 127.475  1.00  0.00    -0.295 NA
ATOM      2  N   UNL     1     110.825 137.552 124.664  1.00  0.00    -0.361 N 
ATOM      3  C   UNL     1     106.903 137.274 127.109  1.00  0.00     0.091 C 
ATOM      4  C   UNL     1     107.020 138.829 126.952  1.00  0.00    -0.026 C 
ATOM      5  C   UNL     1     107.560 136.423 125.959  1.00  0.00     0.061 C 
ATOM      6  C   UNL     1     105.009 137.631 128.580  1.00  0.00     0.102 C 
ATOM      7  C   UNL     1     104.896 139.126 128.227  1.00  0.00     0.116 C 
ATOM      8  C   UNL     1     108.852 137.021 125.527  1.00  0.00    -0.020 A 
ATOM      9  C   UNL     1     108.257 139.364 126.329  1.00  0.00    -0.011 A 
ATOM     10  C   UNL     1     106.069 139.652 127.442  1.00  0.00    -0.007 C 
ATOM     11  C   UNL     1     109.072 138.402 125.714  1.00  0.00     0.010 A 
ATOM     12  C   UNL     1     110.297 138.728 125.153  1.00  0.00     0.046 A 
ATOM     13  C   UNL     1     109.952 136.509 124.881  1.00  0.00     0.087 A 
ATOM     14  C   UNL     1     108.729 140.686 126.326  1.00  0.00     0.009 A 
ATOM     15  C   UNL     1     110.779 140.038 125.151  1.00  0.00     0.027 A 
ATOM     16  C   UNL     1     109.963 141.011 125.745  1.00  0.00     0.003 A 
ATOM     17  H   UNL     1     111.717 137.475 124.195  1.00  0.00     0.166 HD
ENDROOT
BRANCH   7  18
ATOM     18  C   UNL     1     104.542 139.949 129.480  1.00  0.00     0.230 C 
ATOM     19  O   UNL     1     105.472 140.506 130.081  1.00  0.00    -0.274 OA
ATOM     20  N   UNL     1     103.227 140.112 129.911  1.00  0.00    -0.343 N 
BRANCH  20  21
ATOM     21  C   UNL     1     103.001 141.017 131.043  1.00  0.00     0.116 C 
ATOM     22  C   UNL     1     101.868 141.992 130.763  1.00  0.00     0.027 C 
ENDBRANCH  20  21
BRANCH  20  23
ATOM     23  C   UNL     1     102.032 139.485 129.337  1.00  0.00     0.116 C 
ATOM     24  C   UNL     1     101.573 138.275 130.138  1.00  0.00     0.027 C 
ENDBRANCH  20  23
ENDBRANCH   7  18
BRANCH   1  25
ATOM     25  C   UNL     1     104.606 136.723 126.325  1.00  0.00     0.085 C 
BRANCH  25  26
ATOM     26  C   UNL     1     103.872 135.385 126.134  1.00  0.00     0.012 C 
ATOM     27  C   UNL     1     102.924 135.050 127.278  1.00  0.00     0.005 C 
ENDBRANCH  25  26
ENDBRANCH   1  25
TORSDOF 5
ENDMDL
MODEL 8
REMARK VINA RESULT:    -8.612      2.290      6.446
REMARK INTER + INTRA:         -11.630
REMARK INTER:                 -11.480
REMARK INTRA:                  -0.150
REMARK UNBOUND:                -0.501
REMARK SMILES CCCN1C[C@H](C(=O)N(CC)CC)C=C2c3cccc4[nH]cc(c34)C[C@H]21
REMARK SMILES IDX 4 1 21 2 26 3 15 4 25 5 5 6 6 7 23 8 16 9 14 10 24 11 20 12
REMARK SMILES IDX 22 13 17 14 19 15 18 16 7 18 8 19 9 20 10 21 11 22 12 23
REMARK SMILES IDX 13 24 3 25 2 26 1 27
REMARK H PARENT 21 17
ROOT
ATOM      1  N   UNL     1     106.177 138.157 128.923  1.00  0.00    -0.295 NA
ATOM      2  N   UNL     1     106.985 132.502 126.948  1.00  0.00    -0.361 N 
ATOM      3  C   UNL     1     106.766 136.926 128.297  1.00  0.00     0.091 C 
ATOM      4  C   UNL     1     107.214 137.114 126.807  1.00  0.00    -0.026 C 
ATOM      5  C   UNL     1     105.926 135.628 128.596  1.00  0.00     0.061 C 
ATOM      6  C   UNL     1     107.050 139.312 128.616  1.00  0.00     0.102 C 
ATOM      7  C   UNL     1     107.204 139.591 127.109  1.00  0.00     0.116 C 
ATOM      8  C   UNL     1     106.458 134.464 127.838  1.00  0.00    -0.020 A 
ATOM      9  C   UNL     1     107.546 135.892 126.031  1.00  0.00    -0.011 A 
ATOM     10  C   UNL     1     107.372 138.345 126.277  1.00  0.00    -0.007 C 
ATOM     11  C   UNL     1     107.174 134.686 126.642  1.00  0.00     0.010 A 
ATOM     12  C   UNL     1     107.479 133.454 126.083  1.00  0.00     0.046 A 
ATOM     13  C   UNL     1     106.357 133.104 128.016  1.00  0.00     0.087 A 
ATOM     14  C   UNL     1     108.225 135.796 124.807  1.00  0.00     0.009 A 
ATOM     15  C   UNL     1     108.160 133.348 124.869  1.00  0.00     0.027 A 
ATOM     16  C   UNL     1     108.520 134.548 124.240  1.00  0.00     0.003 A 
ATOM     17  H   UNL     1     107.058 131.504 126.805  1.00  0.00     0.166 HD
ENDROOT
BRANCH   7  18
ATOM     18  C   UNL     1     108.274 140.672 126.868  1.00  0.00     0.230 C 
ATOM     19  O   UNL     1     107.906 141.855 126.880  1.00  0.00    -0.274 OA
ATOM     20  N   UNL     1     109.619 140.355 126.690  1.00  0.00    -0.343 N 
BRANCH  20  21
ATOM     21  C   UNL     1     110.564 141.473 126.593  1.00  0.00     0.116 C 
ATOM     22  C   UNL     1     110.672 141.992 125.167  1.00  0.00     0.027 C 
ENDBRANCH  20  21
BRANCH  20  23
ATOM     23  C   UNL     1     110.199 139.010 126.607  1.00  0.00     0.116 C 
ATOM     24  C   UNL     1     110.697 138.681 125.207  1.00  0.00     0.027 C 
ENDBRANCH  20  23
ENDBRANCH   7  18
BRANCH   1  25
ATOM     25  C   UNL     1     104.767 138.386 128.553  1.00  0.00     0.085 C 
BRANCH  25  26
ATOM     26  C   UNL     1     103.820 138.751 129.710  1.00  0.00     0.012 C 
ATOM     27  C   UNL     1     103.856 137.747 130.855  1.00  0.00     0.005 C 
ENDBRANCH  25  26
ENDBRANCH   1  25
TORSDOF 5
ENDMDL
MODEL 9
REMARK VINA RESULT:    -8.606      2.592      5.533
REMARK INTER + INTRA:         -11.622
REMARK INTER:                 -10.878
REMARK INTRA:                  -0.745
REMARK UNBOUND:                -0.501
REMARK SMILES CCCN1C[C@H](C(=O)N(CC)CC)C=C2c3cccc4[nH]cc(c34)C[C@H]21
REMARK SMILES IDX 4 1 21 2 26 3 15 4 25 5 5 6 6 7 23 8 16 9 14 10 24 11 20 12
REMARK SMILES IDX 22 13 17 14 19 15 18 16 7 18 8 19 9 20 10 21 11 22 12 23
REMARK SMILES IDX 13 24 3 25 2 26 1 27
REMARK H PARENT 21 17
ROOT
ATOM      1  N   UNL     1     107.597 136.388 126.631  1.00  0.00    -0.295 NA
ATOM      2  N   UNL     1     112.320 139.186 124.100  1.00  0.00    -0.361 N 
ATOM      3  C   UNL     1     108.744 137.324 126.377  1.00  0.00     0.091 C 
ATOM      4  C   UNL     1     108.366 138.842 126.465  1.00  0.00    -0.026 C 
ATOM      5  C   UNL     1     109.604 136.908 125.126  1.00  0.00     0.061 C 
ATOM      6  C   UNL     1     106.871 136.840 127.839  1.00  0.00     0.102 C 
ATOM      7  C   UNL     1     106.289 138.260 127.719  1.00  0.00     0.116 C 
ATOM      8  C   UNL     1     110.633 137.938 124.823  1.00  0.00    -0.020 A 
ATOM      9  C   UNL     1     109.358 139.826 125.962  1.00  0.00    -0.011 A 
ATOM     10  C   UNL     1     107.218 139.241 127.053  1.00  0.00    -0.007 C 
ATOM     11  C   UNL     1     110.417 139.274 125.227  1.00  0.00     0.010 A 
ATOM     12  C   UNL     1     111.464 140.048 124.752  1.00  0.00     0.046 A 
ATOM     13  C   UNL     1     111.822 137.902 124.132  1.00  0.00     0.087 A 
ATOM     14  C   UNL     1     109.394 141.212 126.176  1.00  0.00     0.009 A 
ATOM     15  C   UNL     1     111.513 141.427 124.964  1.00  0.00     0.027 A 
ATOM     16  C   UNL     1     110.450 141.992 125.682  1.00  0.00     0.003 A 
ATOM     17  H   UNL     1     113.179 139.464 123.647  1.00  0.00     0.166 HD
ENDROOT
BRANCH   7  18
ATOM     18  C   UNL     1     105.728 138.727 129.075  1.00  0.00     0.230 C 
ATOM     19  O   UNL     1     106.493 139.346 129.829  1.00  0.00    -0.274 OA
ATOM     20  N   UNL     1     104.400 138.515 129.439  1.00  0.00    -0.343 N 
BRANCH  20  21
ATOM     21  C   UNL     1     103.948 139.112 130.701  1.00  0.00     0.116 C 
ATOM     22  C   UNL     1     103.413 140.522 130.494  1.00  0.00     0.027 C 
ENDBRANCH  20  21
BRANCH  20  23
ATOM     23  C   UNL     1     103.392 137.768 128.681  1.00  0.00     0.116 C 
ATOM     24  C   UNL     1     103.358 136.294 129.060  1.00  0.00     0.027 C 
ENDBRANCH  20  23
ENDBRANCH   7  18
BRANCH   1  25
ATOM     25  C   UNL     1     106.714 136.211 125.461  1.00  0.00     0.085 C 
BRANCH  25  26
ATOM     26  C   UNL     1     106.481 134.759 125.009  1.00  0.00     0.012 C 
ATOM     27  C   UNL     1     107.770 133.963 124.857  1.00  0.00     0.005 C 
ENDBRANCH  25  26
ENDBRANCH   1  25
TORSDOF 5
ENDMDL
MODEL 10
REMARK VINA RESULT:    -8.522      2.298      5.728
REMARK INTER + INTRA:         -11.514
REMARK INTER:                 -10.766
REMARK INTRA:                  -0.748
REMARK UNBOUND:                -0.501
REMARK SMILES CCCN1C[C@H](C(=O)N(CC)CC)C=C2c3cccc4[nH]cc(c34)C[C@H]21
REMARK SMILES IDX 4 1 21 2 26 3 15 4 25 5 5 6 6 7 23 8 16 9 14 10 24 11 20 12
REMARK SMILES IDX 22 13 17 14 19 15 18 16 7 18 8 19 9 20 10 21 11 22 12 23
REMARK SMILES IDX 13 24 3 25 2 26 1 27
REMARK H PARENT 21 17
ROOT
ATOM      1  N   UNL     1     107.310 137.218 127.768  1.00  0.00    -0.295 NA
ATOM      2  N   UNL     1     102.203 138.820 130.576  1.00  0.00    -0.361 N 
ATOM      3  C   UNL     1     106.023 137.176 128.540  1.00  0.00     0.091 C 
ATOM      4  C   UNL     1     104.954 136.192 127.954  1.00  0.00    -0.026 C 
ATOM      5  C   UNL     1     105.493 138.609 128.920  1.00  0.00     0.061 C 
ATOM      6  C   UNL     1     107.743 135.830 127.487  1.00  0.00     0.102 C 
ATOM      7  C   UNL     1     106.732 135.021 126.654  1.00  0.00     0.116 C 
ATOM      8  C   UNL     1     104.148 138.529 129.550  1.00  0.00    -0.020 A 
ATOM      9  C   UNL     1     103.569 136.290 128.482  1.00  0.00    -0.011 A 
ATOM     10  C   UNL     1     105.299 135.238 127.064  1.00  0.00    -0.007 C 
ATOM     11  C   UNL     1     103.314 137.427 129.263  1.00  0.00     0.010 A 
ATOM     12  C   UNL     1     102.094 137.628 129.890  1.00  0.00     0.046 A 
ATOM     13  C   UNL     1     103.445 139.379 130.371  1.00  0.00     0.087 A 
ATOM     14  C   UNL     1     102.517 135.372 128.342  1.00  0.00     0.009 A 
ATOM     15  C   UNL     1     101.044 136.718 129.763  1.00  0.00     0.027 A 
ATOM     16  C   UNL     1     101.282 135.587 128.969  1.00  0.00     0.003 A 
ATOM     17  H   UNL     1     101.465 139.230 131.131  1.00  0.00     0.166 HD
ENDROOT
BRANCH   7  18
ATOM     18  C   UNL     1     107.161 133.544 126.576  1.00  0.00     0.230 C 
ATOM     19  O   UNL     1     107.113 132.877 127.620  1.00  0.00    -0.274 OA
ATOM     20  N   UNL     1     107.545 132.946 125.377  1.00  0.00    -0.343 N 
BRANCH  20  21
ATOM     21  C   UNL     1     107.813 131.505 125.402  1.00  0.00     0.116 C 
ATOM     22  C   UNL     1     108.098 130.963 124.010  1.00  0.00     0.027 C 
ENDBRANCH  20  21
BRANCH  20  23
ATOM     23  C   UNL     1     107.693 133.608 124.076  1.00  0.00     0.116 C 
ATOM     24  C   UNL     1     108.915 134.513 124.025  1.00  0.00     0.027 C 
ENDBRANCH  20  23
ENDBRANCH   7  18
BRANCH   1  25
ATOM     25  C   UNL     1     107.240 138.055 126.555  1.00  0.00     0.085 C 
BRANCH  25  26
ATOM     26  C   UNL     1     108.479 138.920 126.263  1.00  0.00     0.012 C 
ATOM     27  C   UNL     1     109.532 138.200 125.431  1.00  0.00     0.005 C 
ENDBRANCH  25  26
ENDBRANCH   1  25
TORSDOF 5
ENDMDL
MODEL 11
REMARK VINA RESULT:    -8.413      2.469      7.142
REMARK INTER + INTRA:         -11.373
REMARK INTER:                 -10.927
REMARK INTRA:                  -0.446
REMARK UNBOUND:                -0.501
REMARK SMILES CCCN1C[C@H](C(=O)N(CC)CC)C=C2c3cccc4[nH]cc(c34)C[C@H]21
REMARK SMILES IDX 4 1 21 2 26 3 15 4 25 5 5 6 6 7 23 8 16 9 14 10 24 11 20 12
REMARK SMILES IDX 22 13 17 14 19 15 18 16 7 18 8 19 9 20 10 21 11 22 12 23
REMARK SMILES IDX 13 24 3 25 2 26 1 27
REMARK H PARENT 21 17
ROOT
ATOM      1  N   UNL     1     108.595 138.302 125.811  1.00  0.00    -0.295 NA
ATOM      2  N   UNL     1     108.098 132.428 124.474  1.00  0.00    -0.361 N 
ATOM      3  C   UNL     1     108.087 136.893 125.699  1.00  0.00     0.091 C 
ATOM      4  C   UNL     1     107.724 136.230 127.071  1.00  0.00    -0.026 C 
ATOM      5  C   UNL     1     108.950 136.009 124.724  1.00  0.00     0.061 C 
ATOM      6  C   UNL     1     107.705 139.059 126.718  1.00  0.00     0.102 C 
ATOM      7  C   UNL     1     107.633 138.481 128.144  1.00  0.00     0.116 C 
ATOM      8  C   UNL     1     108.505 134.590 124.757  1.00  0.00    -0.020 A 
ATOM      9  C   UNL     1     107.480 134.765 127.083  1.00  0.00    -0.011 A 
ATOM     10  C   UNL     1     107.557 136.977 128.183  1.00  0.00    -0.007 C 
ATOM     11  C   UNL     1     107.855 134.096 125.909  1.00  0.00     0.010 A 
ATOM     12  C   UNL     1     107.625 132.740 125.731  1.00  0.00     0.046 A 
ATOM     13  C   UNL     1     108.640 133.543 123.875  1.00  0.00     0.087 A 
ATOM     14  C   UNL     1     106.880 133.990 128.087  1.00  0.00     0.009 A 
ATOM     15  C   UNL     1     107.023 131.962 126.721  1.00  0.00     0.027 A 
ATOM     16  C   UNL     1     106.661 132.617 127.906  1.00  0.00     0.003 A 
ATOM     17  H   UNL     1     108.067 131.505 124.063  1.00  0.00     0.166 HD
ENDROOT
BRANCH   7  18
ATOM     18  C   UNL     1     106.543 139.200 128.961  1.00  0.00     0.230 C 
ATOM     19  O   UNL     1     106.902 139.825 129.970  1.00  0.00    -0.274 OA
ATOM     20  N   UNL     1     105.206 139.201 128.571  1.00  0.00    -0.343 N 
BRANCH  20  21
ATOM     21  C   UNL     1     104.279 140.022 129.359  1.00  0.00     0.116 C 
ATOM     22  C   UNL     1     103.685 139.237 130.520  1.00  0.00     0.027 C 
ENDBRANCH  20  21
BRANCH  20  23
ATOM     23  C   UNL     1     104.623 138.478 127.436  1.00  0.00     0.116 C 
ATOM     24  C   UNL     1     104.194 137.067 127.809  1.00  0.00     0.027 C 
ENDBRANCH  20  23
ENDBRANCH   7  18
BRANCH   1  25
ATOM     25  C   UNL     1     110.017 138.383 126.199  1.00  0.00     0.085 C 
BRANCH  25  26
ATOM     26  C   UNL     1     110.944 139.104 125.205  1.00  0.00     0.012 C 
ATOM     27  C   UNL     1     110.986 140.612 125.406  1.00  0.00     0.005 C 
ENDBRANCH  25  26
ENDBRANCH   1  25
TORSDOF 5
ENDMDL
MODEL 12
REMARK VINA RESULT:    -8.368      2.359      7.191
REMARK INTER + INTRA:         -11.315
REMARK INTER:                 -11.067
REMARK INTRA:                  -0.248
REMARK UNBOUND:                -0.501
REMARK SMILES CCCN1C[C@H](C(=O)N(CC)CC)C=C2c3cccc4[nH]cc(c34)C[C@H]21
REMARK SMILES IDX 4 1 21 2 26 3 15 4 25 5 5 6 6 7 23 8 16 9 14 10 24 11 20 12
REMARK SMILES IDX 22 13 17 14 19 15 18 16 7 18 8 19 9 20 10 21 11 22 12 23
REMARK SMILES IDX 13 24 3 25 2 26 1 27
REMARK H PARENT 21 17
ROOT
ATOM      1  N   UNL     1     107.830 136.632 125.169  1.00  0.00    -0.295 NA
ATOM      2  N   UNL     1     108.362 130.703 124.118  1.00  0.00    -0.361 N 
ATOM      3  C   UNL     1     107.631 135.144 125.206  1.00  0.00     0.091 C 
ATOM      4  C   UNL     1     107.717 134.519 126.640  1.00  0.00    -0.026 C 
ATOM      5  C   UNL     1     108.442 134.392 124.086  1.00  0.00     0.061 C 
ATOM      6  C   UNL     1     107.005 137.250 126.231  1.00  0.00     0.102 C 
ATOM      7  C   UNL     1     107.363 136.773 127.651  1.00  0.00     0.116 C 
ATOM      8  C   UNL     1     108.335 132.917 124.252  1.00  0.00    -0.020 A 
ATOM      9  C   UNL     1     107.808 133.040 126.741  1.00  0.00    -0.011 A 
ATOM     10  C   UNL     1     107.628 135.292 127.743  1.00  0.00    -0.007 C 
ATOM     11  C   UNL     1     108.066 132.382 125.530  1.00  0.00     0.010 A 
ATOM     12  C   UNL     1     108.106 130.999 125.440  1.00  0.00     0.046 A 
ATOM     13  C   UNL     1     108.508 131.862 123.387  1.00  0.00     0.087 A 
ATOM     14  C   UNL     1     107.616 132.231 127.871  1.00  0.00     0.009 A 
ATOM     15  C   UNL     1     107.911 130.185 126.556  1.00  0.00     0.027 A 
ATOM     16  C   UNL     1     107.671 130.833 127.776  1.00  0.00     0.003 A 
ATOM     17  H   UNL     1     108.448 129.767 123.746  1.00  0.00     0.166 HD
ENDROOT
BRANCH   7  18
ATOM     18  C   UNL     1     106.338 137.305 128.671  1.00  0.00     0.230 C 
ATOM     19  O   UNL     1     106.621 138.351 129.274  1.00  0.00    -0.274 OA
ATOM     20  N   UNL     1     105.113 136.677 128.886  1.00  0.00    -0.343 N 
BRANCH  20  21
ATOM     21  C   UNL     1     104.169 137.344 129.789  1.00  0.00     0.116 C 
ATOM     22  C   UNL     1     103.333 138.383 129.058  1.00  0.00     0.027 C 
ENDBRANCH  20  21
BRANCH  20  23
ATOM     23  C   UNL     1     104.656 135.420 128.286  1.00  0.00     0.116 C 
ATOM     24  C   UNL     1     103.915 135.641 126.975  1.00  0.00     0.027 C 
ENDBRANCH  20  23
ENDBRANCH   7  18
BRANCH   1  25
ATOM     25  C   UNL     1     109.248 137.035 125.232  1.00  0.00     0.085 C 
BRANCH  25  26
ATOM     26  C   UNL     1     109.511 138.522 125.525  1.00  0.00     0.012 C 
ATOM     27  C   UNL     1     110.920 138.968 125.159  1.00  0.00     0.005 C 
ENDBRANCH  25  26
ENDBRANCH   1  25
TORSDOF 5
ENDMDL
MODEL 13
REMARK VINA RESULT:    -8.360      1.601      2.175
REMARK INTER + INTRA:         -11.305
REMARK INTER:                 -10.930
REMARK INTRA:                  -0.376
REMARK UNBOUND:                -0.501
REMARK SMILES CCCN1C[C@H](C(=O)N(CC)CC)C=C2c3cccc4[nH]cc(c34)C[C@H]21
REMARK SMILES IDX 4 1 21 2 26 3 15 4 25 5 5 6 6 7 23 8 16 9 14 10 24 11 20 12
REMARK SMILES IDX 22 13 17 14 19 15 18 16 7 18 8 19 9 20 10 21 11 22 12 23
REMARK SMILES IDX 13 24 3 25 2 26 1 27
REMARK H PARENT 21 17
ROOT
ATOM      1  N   UNL     1     104.891 136.508 128.000  1.00  0.00    -0.295 NA
ATOM      2  N   UNL     1     107.802 141.549 126.371  1.00  0.00    -0.361 N 
ATOM      3  C   UNL     1     105.783 137.484 127.289  1.00  0.00     0.091 C 
ATOM      4  C   UNL     1     107.280 137.032 127.190  1.00  0.00    -0.026 C 
ATOM      5  C   UNL     1     105.551 138.971 127.750  1.00  0.00     0.061 C 
ATOM      6  C   UNL     1     105.159 135.149 127.479  1.00  0.00     0.102 C 
ATOM      7  C   UNL     1     106.611 134.680 127.684  1.00  0.00     0.116 C 
ATOM      8  C   UNL     1     106.552 139.882 127.133  1.00  0.00    -0.020 A 
ATOM      9  C   UNL     1     108.276 138.045 126.755  1.00  0.00    -0.011 A 
ATOM     10  C   UNL     1     107.637 135.749 127.412  1.00  0.00    -0.007 C 
ATOM     11  C   UNL     1     107.801 139.365 126.729  1.00  0.00     0.010 A 
ATOM     12  C   UNL     1     108.582 140.417 126.275  1.00  0.00     0.046 A 
ATOM     13  C   UNL     1     106.567 141.237 126.897  1.00  0.00     0.087 A 
ATOM     14  C   UNL     1     109.594 137.840 126.322  1.00  0.00     0.009 A 
ATOM     15  C   UNL     1     109.893 140.222 125.836  1.00  0.00     0.027 A 
ATOM     16  C   UNL     1     110.383 138.909 125.876  1.00  0.00     0.003 A 
ATOM     17  H   UNL     1     108.104 142.477 126.111  1.00  0.00     0.166 HD
ENDROOT
BRANCH   7  18
ATOM     18  C   UNL     1     106.857 133.352 126.944  1.00  0.00     0.230 C 
ATOM     19  O   UNL     1     106.592 132.302 127.547  1.00  0.00    -0.274 OA
ATOM     20  N   UNL     1     107.314 133.311 125.629  1.00  0.00    -0.343 N 
BRANCH  20  21
ATOM     21  C   UNL     1     107.393 131.994 124.987  1.00  0.00     0.116 C 
ATOM     22  C   UNL     1     108.414 131.981 123.859  1.00  0.00     0.027 C 
ENDBRANCH  20  21
BRANCH  20  23
ATOM     23  C   UNL     1     107.711 134.457 124.803  1.00  0.00     0.116 C 
ATOM     24  C   UNL     1     106.536 135.052 124.039  1.00  0.00     0.027 C 
ENDBRANCH  20  23
ENDBRANCH   7  18
BRANCH   1  25
ATOM     25  C   UNL     1     104.987 136.589 129.471  1.00  0.00     0.085 C 
BRANCH  25  26
ATOM     26  C   UNL     1     103.725 137.080 130.200  1.00  0.00     0.012 C 
ATOM     27  C   UNL     1     102.433 136.680 129.501  1.00  0.00     0.005 C 
ENDBRANCH  25  26
ENDBRANCH   1  25
TORSDOF 5
ENDMDL
MODEL 14
REMARK VINA RESULT:    -8.225      2.250      7.007
REMARK INTER + INTRA:         -11.131
REMARK INTER:                 -10.594
REMARK INTRA:                  -0.537
REMARK UNBOUND:                -0.501
REMARK SMILES CCCN1C[C@H](C(=O)N(CC)CC)C=C2c3cccc4[nH]cc(c34)C[C@H]21
REMARK SMILES IDX 4 1 21 2 26 3 15 4 25 5 5 6 6 7 23 8 16 9 14 10 24 11 20 12
REMARK SMILES IDX 22 13 17 14 19 15 18 16 7 18 8 19 9 20 10 21 11 22 12 23
REMARK SMILES IDX 13 24 3 25 2 26 1 27
REMARK H PARENT 21 17
ROOT
ATOM      1  N   UNL     1     107.077 135.692 126.157  1.00  0.00    -0.295 NA
ATOM      2  N   UNL     1     101.575 135.637 128.659  1.00  0.00    -0.361 N 
ATOM      3  C   UNL     1     105.800 136.112 126.827  1.00  0.00     0.091 C 
ATOM      4  C   UNL     1     106.005 136.860 128.188  1.00  0.00    -0.026 C 
ATOM      5  C   UNL     1     104.711 134.976 126.831  1.00  0.00     0.061 C 
ATOM      6  C   UNL     1     108.022 136.831 126.173  1.00  0.00     0.102 C 
ATOM      7  C   UNL     1     108.383 137.318 127.588  1.00  0.00     0.116 C 
ATOM      8  C   UNL     1     103.524 135.381 127.631  1.00  0.00    -0.020 A 
ATOM      9  C   UNL     1     104.810 137.064 129.045  1.00  0.00    -0.011 A 
ATOM     10  C   UNL     1     107.207 137.370 128.529  1.00  0.00    -0.007 C 
ATOM     11  C   UNL     1     103.675 136.337 128.658  1.00  0.00     0.010 A 
ATOM     12  C   UNL     1     102.457 136.474 129.308  1.00  0.00     0.046 A 
ATOM     13  C   UNL     1     102.214 134.963 127.642  1.00  0.00     0.087 A 
ATOM     14  C   UNL     1     104.664 137.923 130.145  1.00  0.00     0.009 A 
ATOM     15  C   UNL     1     102.300 137.330 130.398  1.00  0.00     0.027 A 
ATOM     16  C   UNL     1     103.434 138.048 130.807  1.00  0.00     0.003 A 
ATOM     17  H   UNL     1     100.603 135.522 128.911  1.00  0.00     0.166 HD
ENDROOT
BRANCH   7  18
ATOM     18  C   UNL     1     109.205 138.619 127.516  1.00  0.00     0.230 C 
ATOM     19  O   UNL     1     110.396 138.564 127.855  1.00  0.00    -0.274 OA
ATOM     20  N   UNL     1     108.662 139.811 127.042  1.00  0.00    -0.343 N 
BRANCH  20  21
ATOM     21  C   UNL     1     109.573 140.953 126.903  1.00  0.00     0.116 C 
ATOM     22  C   UNL     1     110.155 141.037 125.500  1.00  0.00     0.027 C 
ENDBRANCH  20  21
BRANCH  20  23
ATOM     23  C   UNL     1     107.269 140.044 126.647  1.00  0.00     0.116 C 
ATOM     24  C   UNL     1     106.745 141.386 127.141  1.00  0.00     0.027 C 
ENDBRANCH  20  23
ENDBRANCH   7  18
BRANCH   1  25
ATOM     25  C   UNL     1     107.655 134.456 126.720  1.00  0.00     0.085 C 
BRANCH  25  26
ATOM     26  C   UNL     1     107.656 133.231 125.790  1.00  0.00     0.012 C 
ATOM     27  C   UNL     1     107.939 133.580 124.335  1.00  0.00     0.005 C 
ENDBRANCH  25  26
ENDBRANCH   1  25
TORSDOF 5
ENDMDL
MODEL 15
REMARK VINA RESULT:    -8.134      2.658      7.217
REMARK INTER + INTRA:         -11.013
REMARK INTER:                 -10.299
REMARK INTRA:                  -0.715
REMARK UNBOUND:                -0.501
REMARK SMILES CCCN1C[C@H](C(=O)N(CC)CC)C=C2c3cccc4[nH]cc(c34)C[C@H]21
REMARK SMILES IDX 4 1 21 2 26 3 15 4 25 5 5 6 6 7 23 8 16 9 14 10 24 11 20 12
REMARK SMILES IDX 22 13 17 14 19 15 18 16 7 18 8 19 9 20 10 21 11 22 12 23
REMARK SMILES IDX 13 24 3 25 2 26 1 27
REMARK H PARENT 21 17
ROOT
ATOM      1  N   UNL     1     105.732 136.262 126.217  1.00  0.00    -0.295 NA
ATOM      2  N   UNL     1     100.792 135.944 129.686  1.00  0.00    -0.361 N 
ATOM      3  C   UNL     1     104.537 136.627 127.051  1.00  0.00     0.091 C 
ATOM      4  C   UNL     1     104.855 137.600 128.237  1.00  0.00    -0.026 C 
ATOM      5  C   UNL     1     103.642 135.383 127.411  1.00  0.00     0.061 C 
ATOM      6  C   UNL     1     106.489 137.494 125.903  1.00  0.00     0.102 C 
ATOM      7  C   UNL     1     107.006 138.240 127.148  1.00  0.00     0.116 C 
ATOM      8  C   UNL     1     102.559 135.764 128.356  1.00  0.00    -0.020 A 
ATOM      9  C   UNL     1     103.802 137.793 129.267  1.00  0.00    -0.011 A 
ATOM     10  C   UNL     1     106.009 138.299 128.275  1.00  0.00    -0.007 C 
ATOM     11  C   UNL     1     102.737 136.883 129.199  1.00  0.00     0.010 A 
ATOM     12  C   UNL     1     101.638 136.974 130.040  1.00  0.00     0.046 A 
ATOM     13  C   UNL     1     101.344 135.199 128.668  1.00  0.00     0.087 A 
ATOM     14  C   UNL     1     103.717 138.791 130.248  1.00  0.00     0.009 A 
ATOM     15  C   UNL     1     101.541 137.967 131.016  1.00  0.00     0.027 A 
ATOM     16  C   UNL     1     102.609 138.871 131.105  1.00  0.00     0.003 A 
ATOM     17  H   UNL     1      99.903 135.755 130.128  1.00  0.00     0.166 HD
ENDROOT
BRANCH   7  18
ATOM     18  C   UNL     1     107.605 139.601 126.748  1.00  0.00     0.230 C 
ATOM     19  O   UNL     1     106.836 140.572 126.696  1.00  0.00    -0.274 OA
ATOM     20  N   UNL     1     108.965 139.767 126.498  1.00  0.00    -0.343 N 
BRANCH  20  21
ATOM     21  C   UNL     1     109.438 141.133 126.247  1.00  0.00     0.116 C 
ATOM     22  C   UNL     1     110.943 141.173 126.027  1.00  0.00     0.027 C 
ENDBRANCH  20  21
BRANCH  20  23
ATOM     23  C   UNL     1     109.987 138.715 126.477  1.00  0.00     0.116 C 
ATOM     24  C   UNL     1     109.963 137.913 125.184  1.00  0.00     0.027 C 
ENDBRANCH  20  23
ENDBRANCH   7  18
BRANCH   1  25
ATOM     25  C   UNL     1     106.571 135.210 126.824  1.00  0.00     0.085 C 
BRANCH  25  26
ATOM     26  C   UNL     1     107.766 134.734 125.981  1.00  0.00     0.012 C 
ATOM     27  C   UNL     1     107.376 134.306 124.572  1.00  0.00     0.005 C 
ENDBRANCH  25  26
ENDBRANCH   1  25
TORSDOF 5
ENDMDL
MODEL 16
REMARK VINA RESULT:    -7.953      1.340      1.979
REMARK INTER + INTRA:         -10.780
REMARK INTER:                 -10.753
REMARK INTRA:                  -0.027
REMARK UNBOUND:                -0.501
REMARK SMILES CCCN1C[C@H](C(=O)N(CC)CC)C=C2c3cccc4[nH]cc(c34)C[C@H]21
REMARK SMILES IDX 4 1 21 2 26 3 15 4 25 5 5 6 6 7 23 8 16 9 14 10 24 11 20 12
REMARK SMILES IDX 22 13 17 14 19 15 18 16 7 18 8 19 9 20 10 21 11 22 12 23
REMARK SMILES IDX 13 24 3 25 2 26 1 27
REMARK H PARENT 21 17
ROOT
ATOM      1  N   UNL     1     106.513 135.211 125.827  1.00  0.00    -0.295 NA
ATOM      2  N   UNL     1     107.943 141.015 126.729  1.00  0.00    -0.361 N 
ATOM      3  C   UNL     1     107.074 136.594 125.660  1.00  0.00     0.091 C 
ATOM      4  C   UNL     1     108.623 136.635 125.424  1.00  0.00    -0.026 C 
ATOM      5  C   UNL     1     106.521 137.610 126.728  1.00  0.00     0.061 C 
ATOM      6  C   UNL     1     107.063 134.341 124.763  1.00  0.00     0.102 C 
ATOM      7  C   UNL     1     108.598 134.222 124.791  1.00  0.00     0.116 C 
ATOM      8  C   UNL     1     107.212 138.923 126.620  1.00  0.00    -0.020 A 
ATOM      9  C   UNL     1     109.297 137.954 125.524  1.00  0.00    -0.011 A 
ATOM     10  C   UNL     1     109.302 135.526 125.062  1.00  0.00    -0.007 C 
ATOM     11  C   UNL     1     108.512 138.979 126.073  1.00  0.00     0.010 A 
ATOM     12  C   UNL     1     108.968 140.285 126.165  1.00  0.00     0.046 A 
ATOM     13  C   UNL     1     106.873 140.196 127.014  1.00  0.00     0.087 A 
ATOM     14  C   UNL     1     110.585 138.308 125.093  1.00  0.00     0.009 A 
ATOM     15  C   UNL     1     110.245 140.648 125.734  1.00  0.00     0.027 A 
ATOM     16  C   UNL     1     111.045 139.628 125.201  1.00  0.00     0.003 A 
ATOM     17  H   UNL     1     107.984 142.006 126.922  1.00  0.00     0.166 HD
ENDROOT
BRANCH   7  18
ATOM     18  C   UNL     1     109.101 133.469 123.545  1.00  0.00     0.230 C 
ATOM     19  O   UNL     1     109.748 134.114 122.707  1.00  0.00    -0.274 OA
ATOM     20  N   UNL     1     108.888 132.103 123.369  1.00  0.00    -0.343 N 
BRANCH  20  21
ATOM     21  C   UNL     1     109.519 131.471 122.205  1.00  0.00     0.116 C 
ATOM     22  C   UNL     1     110.992 131.836 122.099  1.00  0.00     0.027 C 
ENDBRANCH  20  21
BRANCH  20  23
ATOM     23  C   UNL     1     108.110 131.218 124.242  1.00  0.00     0.116 C 
ATOM     24  C   UNL     1     108.975 130.156 124.907  1.00  0.00     0.027 C 
ENDBRANCH  20  23
ENDBRANCH   7  18
BRANCH   1  25
ATOM     25  C   UNL     1     106.709 134.659 127.181  1.00  0.00     0.085 C 
BRANCH  25  26
ATOM     26  C   UNL     1     106.367 133.169 127.355  1.00  0.00     0.012 C 
ATOM     27  C   UNL     1     107.565 132.320 127.760  1.00  0.00     0.005 C 
ENDBRANCH  25  26
ENDBRANCH   1  25
TORSDOF 5
ENDMDL
MODEL 17
REMARK VINA RESULT:    -7.850      2.009      5.453
REMARK INTER + INTRA:         -10.646
REMARK INTER:                 -10.175
REMARK INTRA:                  -0.470
REMARK UNBOUND:                -0.501
REMARK SMILES CCCN1C[C@H](C(=O)N(CC)CC)C=C2c3cccc4[nH]cc(c34)C[C@H]21
REMARK SMILES IDX 4 1 21 2 26 3 15 4 25 5 5 6 6 7 23 8 16 9 14 10 24 11 20 12
REMARK SMILES IDX 22 13 17 14 19 15 18 16 7 18 8 19 9 20 10 21 11 22 12 23
REMARK SMILES IDX 13 24 3 25 2 26 1 27
REMARK H PARENT 21 17
ROOT
ATOM      1  N   UNL     1     107.656 137.374 127.263  1.00  0.00    -0.295 NA
ATOM      2  N   UNL     1     102.893 138.345 130.856  1.00  0.00    -0.361 N 
ATOM      3  C   UNL     1     106.449 137.170 128.132  1.00  0.00     0.091 C 
ATOM      4  C   UNL     1     105.299 136.351 127.452  1.00  0.00    -0.026 C 
ATOM      5  C   UNL     1     106.001 138.485 128.873  1.00  0.00     0.061 C 
ATOM      6  C   UNL     1     108.018 136.082 126.639  1.00  0.00     0.102 C 
ATOM      7  C   UNL     1     106.908 135.488 125.752  1.00  0.00     0.116 C 
ATOM      8  C   UNL     1     104.721 138.277 129.601  1.00  0.00    -0.020 A 
ATOM      9  C   UNL     1     103.975 136.339 128.125  1.00  0.00    -0.011 A 
ATOM     10  C   UNL     1     105.528 135.619 126.342  1.00  0.00    -0.007 C 
ATOM     11  C   UNL     1     103.831 137.274 129.161  1.00  0.00     0.010 A 
ATOM     12  C   UNL     1     102.683 137.339 129.937  1.00  0.00     0.046 A 
ATOM     13  C   UNL     1     104.126 138.926 130.658  1.00  0.00     0.087 A 
ATOM     14  C   UNL     1     102.888 135.484 127.891  1.00  0.00     0.009 A 
ATOM     15  C   UNL     1     101.599 136.488 129.717  1.00  0.00     0.027 A 
ATOM     16  C   UNL     1     101.725 135.563 128.671  1.00  0.00     0.003 A 
ATOM     17  H   UNL     1     102.226 138.626 131.561  1.00  0.00     0.166 HD
ENDROOT
BRANCH   7  18
ATOM     18  C   UNL     1     107.282 134.063 125.305  1.00  0.00     0.230 C 
ATOM     19  O   UNL     1     107.427 133.863 124.090  1.00  0.00    -0.274 OA
ATOM     20  N   UNL     1     107.501 133.034 126.218  1.00  0.00    -0.343 N 
BRANCH  20  21
ATOM     21  C   UNL     1     107.972 131.752 125.682  1.00  0.00     0.116 C 
ATOM     22  C   UNL     1     108.656 130.915 126.753  1.00  0.00     0.027 C 
ENDBRANCH  20  21
BRANCH  20  23
ATOM     23  C   UNL     1     107.328 133.102 127.673  1.00  0.00     0.116 C 
ATOM     24  C   UNL     1     105.896 132.807 128.098  1.00  0.00     0.027 C 
ENDBRANCH  20  23
ENDBRANCH   7  18
BRANCH   1  25
ATOM     25  C   UNL     1     107.495 138.463 126.281  1.00  0.00     0.085 C 
BRANCH  25  26
ATOM     26  C   UNL     1     108.620 139.512 126.250  1.00  0.00     0.012 C 
ATOM     27  C   UNL     1     109.873 139.029 125.531  1.00  0.00     0.005 C 
ENDBRANCH  25  26
ENDBRANCH   1  25
TORSDOF 5
ENDMDL
MODEL 18
REMARK VINA RESULT:    -7.736      2.478      4.192
REMARK INTER + INTRA:         -10.499
REMARK INTER:                  -9.910
REMARK INTRA:                  -0.589
REMARK UNBOUND:                -0.501
REMARK SMILES CCCN1C[C@H](C(=O)N(CC)CC)C=C2c3cccc4[nH]cc(c34)C[C@H]21
REMARK SMILES IDX 4 1 21 2 26 3 15 4 25 5 5 6 6 7 23 8 16 9 14 10 24 11 20 12
REMARK SMILES IDX 22 13 17 14 19 15 18 16 7 18 8 19 9 20 10 21 11 22 12 23
REMARK SMILES IDX 13 24 3 25 2 26 1 27
REMARK H PARENT 21 17
ROOT
ATOM      1  N   UNL     1     107.379 133.592 124.443  1.00  0.00    -0.295 NA
ATOM      2  N   UNL     1     105.901 138.817 127.097  1.00  0.00    -0.361 N 
ATOM      3  C   UNL     1     107.247 135.054 124.761  1.00  0.00     0.091 C 
ATOM      4  C   UNL     1     108.613 135.813 124.869  1.00  0.00    -0.026 C 
ATOM      5  C   UNL     1     106.218 135.336 125.917  1.00  0.00     0.061 C 
ATOM      6  C   UNL     1     108.338 133.431 123.327  1.00  0.00     0.102 C 
ATOM      7  C   UNL     1     109.749 133.963 123.639  1.00  0.00     0.116 C 
ATOM      8  C   UNL     1     106.229 136.773 126.300  1.00  0.00    -0.020 A 
ATOM      9  C   UNL     1     108.594 137.182 125.446  1.00  0.00    -0.011 A 
ATOM     10  C   UNL     1     109.751 135.275 124.380  1.00  0.00    -0.007 C 
ATOM     11  C   UNL     1     107.389 137.543 126.067  1.00  0.00     0.010 A 
ATOM     12  C   UNL     1     107.183 138.811 126.588  1.00  0.00     0.046 A 
ATOM     13  C   UNL     1     105.314 137.582 126.933  1.00  0.00     0.087 A 
ATOM     14  C   UNL     1     109.597 138.161 125.398  1.00  0.00     0.009 A 
ATOM     15  C   UNL     1     108.172 139.794 126.540  1.00  0.00     0.027 A 
ATOM     16  C   UNL     1     109.387 139.438 125.938  1.00  0.00     0.003 A 
ATOM     17  H   UNL     1     105.467 139.612 127.546  1.00  0.00     0.166 HD
ENDROOT
BRANCH   7  18
ATOM     18  C   UNL     1     110.625 133.941 122.372  1.00  0.00     0.230 C 
ATOM     19  O   UNL     1     111.009 135.030 121.922  1.00  0.00    -0.274 OA
ATOM     20  N   UNL     1     111.021 132.750 121.768  1.00  0.00    -0.343 N 
BRANCH  20  21
ATOM     21  C   UNL     1     111.955 132.850 120.640  1.00  0.00     0.116 C 
ATOM     22  C   UNL     1     113.390 132.602 121.078  1.00  0.00     0.027 C 
ENDBRANCH  20  21
BRANCH  20  23
ATOM     23  C   UNL     1     110.617 131.394 122.153  1.00  0.00     0.116 C 
ATOM     24  C   UNL     1     110.239 130.540 120.951  1.00  0.00     0.027 C 
ENDBRANCH  20  23
ENDBRANCH   7  18
BRANCH   1  25
ATOM     25  C   UNL     1     107.717 132.765 125.617  1.00  0.00     0.085 C 
BRANCH  25  26
ATOM     26  C   UNL     1     107.556 131.245 125.437  1.00  0.00     0.012 C 
ATOM     27  C   UNL     1     108.756 130.450 125.933  1.00  0.00     0.005 C 
ENDBRANCH  25  26
ENDBRANCH   1  25
TORSDOF 5
ENDMDL
MODEL 19
REMARK VINA RESULT:    -7.703      2.627      6.693
REMARK INTER + INTRA:         -10.456
REMARK INTER:                  -9.741
REMARK INTRA:                  -0.715
REMARK UNBOUND:                -0.501
REMARK SMILES CCCN1C[C@H](C(=O)N(CC)CC)C=C2c3cccc4[nH]cc(c34)C[C@H]21
REMARK SMILES IDX 4 1 21 2 26 3 15 4 25 5 5 6 6 7 23 8 16 9 14 10 24 11 20 12
REMARK SMILES IDX 22 13 17 14 19 15 18 16 7 18 8 19 9 20 10 21 11 22 12 23
REMARK SMILES IDX 13 24 3 25 2 26 1 27
REMARK H PARENT 21 17
ROOT
ATOM      1  N   UNL     1     107.842 138.734 126.885  1.00  0.00    -0.295 NA
ATOM      2  N   UNL     1     110.216 134.492 123.291  1.00  0.00    -0.361 N 
ATOM      3  C   UNL     1     108.001 137.579 125.937  1.00  0.00     0.091 C 
ATOM      4  C   UNL     1     107.301 136.260 126.410  1.00  0.00    -0.026 C 
ATOM      5  C   UNL     1     109.477 137.418 125.415  1.00  0.00     0.061 C 
ATOM      6  C   UNL     1     106.422 138.824 127.293  1.00  0.00     0.102 C 
ATOM      7  C   UNL     1     105.900 137.565 128.010  1.00  0.00     0.116 C 
ATOM      8  C   UNL     1     109.620 136.181 124.602  1.00  0.00    -0.020 A 
ATOM      9  C   UNL     1     107.634 135.008 125.683  1.00  0.00    -0.011 A 
ATOM     10  C   UNL     1     106.369 136.276 127.386  1.00  0.00    -0.007 C 
ATOM     11  C   UNL     1     108.734 135.103 124.818  1.00  0.00     0.010 A 
ATOM     12  C   UNL     1     109.128 134.046 124.011  1.00  0.00     0.046 A 
ATOM     13  C   UNL     1     110.527 135.786 123.646  1.00  0.00     0.087 A 
ATOM     14  C   UNL     1     106.960 133.778 125.713  1.00  0.00     0.009 A 
ATOM     15  C   UNL     1     108.460 132.821 124.029  1.00  0.00     0.027 A 
ATOM     16  C   UNL     1     107.370 132.709 124.904  1.00  0.00     0.003 A 
ATOM     17  H   UNL     1     110.722 133.938 122.615  1.00  0.00     0.166 HD
ENDROOT
BRANCH   7  18
ATOM     18  C   UNL     1     104.378 137.659 128.221  1.00  0.00     0.230 C 
ATOM     19  O   UNL     1     103.647 137.165 127.351  1.00  0.00    -0.274 OA
ATOM     20  N   UNL     1     103.823 138.231 129.364  1.00  0.00    -0.343 N 
BRANCH  20  21
ATOM     21  C   UNL     1     102.366 138.154 129.512  1.00  0.00     0.116 C 
ATOM     22  C   UNL     1     101.695 139.470 129.150  1.00  0.00     0.027 C 
ENDBRANCH  20  21
BRANCH  20  23
ATOM     23  C   UNL     1     104.549 138.892 130.454  1.00  0.00     0.116 C 
ATOM     24  C   UNL     1     104.755 140.377 130.194  1.00  0.00     0.027 C 
ENDBRANCH  20  23
ENDBRANCH   7  18
BRANCH   1  25
ATOM     25  C   UNL     1     108.769 138.682 128.032  1.00  0.00     0.085 C 
BRANCH  25  26
ATOM     26  C   UNL     1     109.545 139.977 128.327  1.00  0.00     0.012 C 
ATOM     27  C   UNL     1     109.930 140.747 127.071  1.00  0.00     0.005 C 
ENDBRANCH  25  26
ENDBRANCH   1  25
TORSDOF 5
ENDMDL
MODEL 20
REMARK VINA RESULT:    -7.356      2.285      6.688
REMARK INTER + INTRA:         -10.007
REMARK INTER:                  -9.386
REMARK INTRA:                  -0.622
REMARK UNBOUND:                -0.501
REMARK SMILES CCCN1C[C@H](C(=O)N(CC)CC)C=C2c3cccc4[nH]cc(c34)C[C@H]21
REMARK SMILES IDX 4 1 21 2 26 3 15 4 25 5 5 6 6 7 23 8 16 9 14 10 24 11 20 12
REMARK SMILES IDX 22 13 17 14 19 15 18 16 7 18 8 19 9 20 10 21 11 22 12 23
REMARK SMILES IDX 13 24 3 25 2 26 1 27
REMARK H PARENT 21 17
ROOT
ATOM      1  N   UNL     1     107.003 134.823 126.639  1.00  0.00    -0.295 NA
ATOM      2  N   UNL     1     109.367 130.960 122.636  1.00  0.00    -0.361 N 
ATOM      3  C   UNL     1     107.963 134.082 125.753  1.00  0.00     0.091 C 
ATOM      4  C   UNL     1     108.797 135.003 124.798  1.00  0.00    -0.026 C 
ATOM      5  C   UNL     1     107.319 132.812 125.083  1.00  0.00     0.061 C 
ATOM      6  C   UNL     1     107.705 135.976 127.246  1.00  0.00     0.102 C 
ATOM      7  C   UNL     1     108.252 136.982 126.216  1.00  0.00     0.116 C 
ATOM      8  C   UNL     1     108.254 132.196 124.104  1.00  0.00    -0.020 A 
ATOM      9  C   UNL     1     109.560 134.346 123.706  1.00  0.00    -0.011 A 
ATOM     10  C   UNL     1     108.883 136.333 125.011  1.00  0.00    -0.007 C 
ATOM     11  C   UNL     1     109.244 132.996 123.494  1.00  0.00     0.010 A 
ATOM     12  C   UNL     1     109.919 132.221 122.564  1.00  0.00     0.046 A 
ATOM     13  C   UNL     1     108.350 130.934 123.564  1.00  0.00     0.087 A 
ATOM     14  C   UNL     1     110.581 134.888 122.910  1.00  0.00     0.009 A 
ATOM     15  C   UNL     1     110.940 132.748 121.772  1.00  0.00     0.027 A 
ATOM     16  C   UNL     1     111.251 134.102 121.962  1.00  0.00     0.003 A 
ATOM     17  H   UNL     1     109.657 130.174 122.071  1.00  0.00     0.166 HD
ENDROOT
BRANCH   7  18
ATOM     18  C   UNL     1     109.133 138.037 126.911  1.00  0.00     0.230 C 
ATOM     19  O   UNL     1     110.359 137.962 126.740  1.00  0.00    -0.274 OA
ATOM     20  N   UNL     1     108.590 139.073 127.668  1.00  0.00    -0.343 N 
BRANCH  20  21
ATOM     21  C   UNL     1     109.518 140.087 128.179  1.00  0.00     0.116 C 
ATOM     22  C   UNL     1     109.922 141.074 127.094  1.00  0.00     0.027 C 
ENDBRANCH  20  21
BRANCH  20  23
ATOM     23  C   UNL     1     107.174 139.269 127.996  1.00  0.00     0.116 C 
ATOM     24  C   UNL     1     106.479 140.204 127.016  1.00  0.00     0.027 C 
ENDBRANCH  20  23
ENDBRANCH   7  18
BRANCH   1  25
ATOM     25  C   UNL     1     105.751 135.206 125.956  1.00  0.00     0.085 C 
BRANCH  25  26
ATOM     26  C   UNL     1     104.662 135.824 126.849  1.00  0.00     0.012 C 
ATOM     27  C   UNL     1     104.369 137.281 126.518  1.00  0.00     0.005 C 
ENDBRANCH  25  26
ENDBRANCH   1  25
TORSDOF 5
ENDMDL
