MODEL 1
REMARK VINA RESULT:    -8.614      0.000      0.000
REMARK INTER + INTRA:         -12.005
REMARK INTER:                 -11.132
REMARK INTRA:                  -0.873
REMARK UNBOUND:                -0.873
REMARK SMILES CCCN1C[C@H](C(=O)N(CC)CC)C=C2c3cccc4[nH]cc(c34)C[C@H]21
REMARK SMILES IDX 4 1 21 2 26 3 15 4 25 5 5 6 6 7 23 8 16 9 14 10 24 11 20 12
REMARK SMILES IDX 22 13 17 14 19 15 18 16 7 18 8 19 9 20 10 21 11 22 12 23
REMARK SMILES IDX 13 24 3 25 2 26 1 27
REMARK H PARENT 21 17
ROOT
ATOM      1  N   UNL     1     104.680 117.988 110.638  1.00  0.00    -0.295 NA
ATOM      2  N   UNL     1     101.789 122.818 112.840  1.00  0.00    -0.361 N 
ATOM      3  C   UNL     1     103.702 118.870 111.360  1.00  0.00     0.091 C 
ATOM      4  C   UNL     1     102.203 118.604 110.991  1.00  0.00    -0.026 C 
ATOM      5  C   UNL     1     104.141 120.382 111.377  1.00  0.00     0.061 C 
ATOM      6  C   UNL     1     104.200 116.590 110.704  1.00  0.00     0.102 C 
ATOM      7  C   UNL     1     102.819 116.375 110.056  1.00  0.00     0.116 C 
ATOM      8  C   UNL     1     103.079 121.238 111.968  1.00  0.00    -0.020 A 
ATOM      9  C   UNL     1     101.198 119.602 111.441  1.00  0.00    -0.011 A 
ATOM     10  C   UNL     1     101.830 117.470 110.361  1.00  0.00    -0.007 C 
ATOM     11  C   UNL     1     101.736 120.804 111.925  1.00  0.00     0.010 A 
ATOM     12  C   UNL     1     100.936 121.807 112.452  1.00  0.00     0.046 A 
ATOM     13  C   UNL     1     103.093 122.486 112.546  1.00  0.00     0.087 A 
ATOM     14  C   UNL     1      99.803 119.470 111.491  1.00  0.00     0.009 A 
ATOM     15  C   UNL     1      99.548 121.682 112.512  1.00  0.00     0.027 A 
ATOM     16  C   UNL     1      98.998 120.493 112.014  1.00  0.00     0.003 A 
ATOM     17  H   UNL     1     101.492 123.687 113.262  1.00  0.00     0.166 HD
ENDROOT
BRANCH   7  18
ATOM     18  C   UNL     1     102.307 114.951 110.340  1.00  0.00     0.230 C 
ATOM     19  O   UNL     1     101.991 114.678 111.507  1.00  0.00    -0.274 OA
ATOM     20  N   UNL     1     102.153 114.004 109.329  1.00  0.00    -0.343 N 
BRANCH  20  21
ATOM     21  C   UNL     1     101.541 112.723 109.699  1.00  0.00     0.116 C 
ATOM     22  C   UNL     1     100.031 112.751 109.520  1.00  0.00     0.027 C 
ENDBRANCH  20  21
BRANCH  20  23
ATOM     23  C   UNL     1     102.522 114.161 107.918  1.00  0.00     0.116 C 
ATOM     24  C   UNL     1     103.890 113.568 107.610  1.00  0.00     0.027 C 
ENDBRANCH  20  23
ENDBRANCH   7  18
BRANCH   1  25
ATOM     25  C   UNL     1     104.965 118.434 109.260  1.00  0.00     0.085 C 
BRANCH  25  26
ATOM     26  C   UNL     1     106.447 118.676 108.926  1.00  0.00     0.012 C 
ATOM     27  C   UNL     1     107.358 118.600 110.144  1.00  0.00     0.005 C 
ENDBRANCH  25  26
ENDBRANCH   1  25
TORSDOF 5
ENDMDL
MODEL 2
REMARK VINA RESULT:    -7.930      1.867      6.692
REMARK INTER + INTRA:         -11.122
REMARK INTER:                 -10.988
REMARK INTRA:                  -0.133
REMARK UNBOUND:                -0.873
REMARK SMILES CCCN1C[C@H](C(=O)N(CC)CC)C=C2c3cccc4[nH]cc(c34)C[C@H]21
REMARK SMILES IDX 4 1 21 2 26 3 15 4 25 5 5 6 6 7 23 8 16 9 14 10 24 11 20 12
REMARK SMILES IDX 22 13 17 14 19 15 18 16 7 18 8 19 9 20 10 21 11 22 12 23
REMARK SMILES IDX 13 24 3 25 2 26 1 27
REMARK H PARENT 21 17
ROOT
ATOM      1  N   UNL     1     103.349 118.612 110.192  1.00  0.00    -0.295 NA
ATOM      2  N   UNL     1     104.363 113.533 107.075  1.00  0.00    -0.361 N 
ATOM      3  C   UNL     1     103.161 117.305 109.476  1.00  0.00     0.091 C 
ATOM      4  C   UNL     1     102.460 116.197 110.334  1.00  0.00    -0.026 C 
ATOM      5  C   UNL     1     104.448 116.847 108.694  1.00  0.00     0.061 C 
ATOM      6  C   UNL     1     102.082 118.973 110.866  1.00  0.00     0.102 C 
ATOM      7  C   UNL     1     101.616 117.939 111.909  1.00  0.00     0.116 C 
ATOM      8  C   UNL     1     104.269 115.484 108.127  1.00  0.00    -0.020 A 
ATOM      9  C   UNL     1     102.483 114.807 109.812  1.00  0.00    -0.011 A 
ATOM     10  C   UNL     1     101.790 116.510 111.464  1.00  0.00    -0.007 C 
ATOM     11  C   UNL     1     103.353 114.597 108.732  1.00  0.00     0.010 A 
ATOM     12  C   UNL     1     103.435 113.375 108.082  1.00  0.00     0.046 A 
ATOM     13  C   UNL     1     104.881 114.810 107.096  1.00  0.00     0.087 A 
ATOM     14  C   UNL     1     101.712 113.710 110.223  1.00  0.00     0.009 A 
ATOM     15  C   UNL     1     102.668 112.279 108.480  1.00  0.00     0.027 A 
ATOM     16  C   UNL     1     101.809 112.473 109.570  1.00  0.00     0.003 A 
ATOM     17  H   UNL     1     104.637 112.807 106.428  1.00  0.00     0.166 HD
ENDROOT
BRANCH   7  18
ATOM     18  C   UNL     1     100.204 118.286 112.416  1.00  0.00     0.230 C 
ATOM     19  O   UNL     1      99.395 117.355 112.540  1.00  0.00    -0.274 OA
ATOM     20  N   UNL     1      99.843 119.583 112.773  1.00  0.00    -0.343 N 
BRANCH  20  21
ATOM     21  C   UNL     1      98.511 119.771 113.358  1.00  0.00     0.116 C 
ATOM     22  C   UNL     1      98.586 119.990 114.862  1.00  0.00     0.027 C 
ENDBRANCH  20  21
BRANCH  20  23
ATOM     23  C   UNL     1     100.668 120.789 112.643  1.00  0.00     0.116 C 
ATOM     24  C   UNL     1      99.948 121.903 111.895  1.00  0.00     0.027 C 
ENDBRANCH  20  23
ENDBRANCH   7  18
BRANCH   1  25
ATOM     25  C   UNL     1     104.509 118.619 111.104  1.00  0.00     0.085 C 
BRANCH  25  26
ATOM     26  C   UNL     1     105.417 119.858 111.025  1.00  0.00     0.012 C 
ATOM     27  C   UNL     1     104.947 121.006 111.907  1.00  0.00     0.005 C 
ENDBRANCH  25  26
ENDBRANCH   1  25
TORSDOF 5
ENDMDL
MODEL 3
REMARK VINA RESULT:    -7.917      2.465      6.627
REMARK INTER + INTRA:         -11.105
REMARK INTER:                 -10.296
REMARK INTRA:                  -0.809
REMARK UNBOUND:                -0.873
REMARK SMILES CCCN1C[C@H](C(=O)N(CC)CC)C=C2c3cccc4[nH]cc(c34)C[C@H]21
REMARK SMILES IDX 4 1 21 2 26 3 15 4 25 5 5 6 6 7 23 8 16 9 14 10 24 11 20 12
REMARK SMILES IDX 22 13 17 14 19 15 18 16 7 18 8 19 9 20 10 21 11 22 12 23
REMARK SMILES IDX 13 24 3 25 2 26 1 27
REMARK H PARENT 21 17
ROOT
ATOM      1  N   UNL     1     103.020 119.180 110.948  1.00  0.00    -0.295 NA
ATOM      2  N   UNL     1     104.052 113.903 108.186  1.00  0.00    -0.361 N 
ATOM      3  C   UNL     1     102.834 117.837 110.301  1.00  0.00     0.091 C 
ATOM      4  C   UNL     1     102.066 116.798 111.188  1.00  0.00    -0.026 C 
ATOM      5  C   UNL     1     104.144 117.305 109.611  1.00  0.00     0.061 C 
ATOM      6  C   UNL     1     101.733 119.608 111.538  1.00  0.00     0.102 C 
ATOM      7  C   UNL     1     101.193 118.649 112.615  1.00  0.00     0.116 C 
ATOM      8  C   UNL     1     103.958 115.915 109.116  1.00  0.00    -0.020 A 
ATOM      9  C   UNL     1     102.078 115.379 110.750  1.00  0.00    -0.011 A 
ATOM     10  C   UNL     1     101.352 117.193 112.264  1.00  0.00    -0.007 C 
ATOM     11  C   UNL     1     102.992 115.086 109.727  1.00  0.00     0.010 A 
ATOM     12  C   UNL     1     103.074 113.826 109.155  1.00  0.00     0.046 A 
ATOM     13  C   UNL     1     104.600 115.166 108.157  1.00  0.00     0.087 A 
ATOM     14  C   UNL     1     101.262 114.326 111.187  1.00  0.00     0.009 A 
ATOM     15  C   UNL     1     102.262 112.773 109.579  1.00  0.00     0.027 A 
ATOM     16  C   UNL     1     101.358 113.050 110.613  1.00  0.00     0.003 A 
ATOM     17  H   UNL     1     104.337 113.133 107.597  1.00  0.00     0.166 HD
ENDROOT
BRANCH   7  18
ATOM     18  C   UNL     1      99.768 119.057 113.033  1.00  0.00     0.230 C 
ATOM     19  O   UNL     1      98.974 119.366 112.133  1.00  0.00    -0.274 OA
ATOM     20  N   UNL     1      99.352 119.039 114.362  1.00  0.00    -0.343 N 
BRANCH  20  21
ATOM     21  C   UNL     1      97.939 119.328 114.626  1.00  0.00     0.116 C 
ATOM     22  C   UNL     1      97.738 120.762 115.095  1.00  0.00     0.027 C 
ENDBRANCH  20  21
BRANCH  20  23
ATOM     23  C   UNL     1     100.180 118.741 115.535  1.00  0.00     0.116 C 
ATOM     24  C   UNL     1      99.515 117.744 116.474  1.00  0.00     0.027 C 
ENDBRANCH  20  23
ENDBRANCH   7  18
BRANCH   1  25
ATOM     25  C   UNL     1     104.136 119.216 111.913  1.00  0.00     0.085 C 
BRANCH  25  26
ATOM     26  C   UNL     1     105.201 120.298 111.668  1.00  0.00     0.012 C 
ATOM     27  C   UNL     1     104.716 121.704 111.994  1.00  0.00     0.005 C 
ENDBRANCH  25  26
ENDBRANCH   1  25
TORSDOF 5
ENDMDL
MODEL 4
REMARK VINA RESULT:    -7.894      2.131      6.651
REMARK INTER + INTRA:         -11.075
REMARK INTER:                 -10.399
REMARK INTRA:                  -0.676
REMARK UNBOUND:                -0.873
REMARK SMILES CCCN1C[C@H](C(=O)N(CC)CC)C=C2c3cccc4[nH]cc(c34)C[C@H]21
REMARK SMILES IDX 4 1 21 2 26 3 15 4 25 5 5 6 6 7 23 8 16 9 14 10 24 11 20 12
REMARK SMILES IDX 22 13 17 14 19 15 18 16 7 18 8 19 9 20 10 21 11 22 12 23
REMARK SMILES IDX 13 24 3 25 2 26 1 27
REMARK H PARENT 21 17
ROOT
ATOM      1  N   UNL     1     103.772 118.585 110.196  1.00  0.00    -0.295 NA
ATOM      2  N   UNL     1     104.035 113.087 107.695  1.00  0.00    -0.361 N 
ATOM      3  C   UNL     1     103.395 117.253 109.613  1.00  0.00     0.091 C 
ATOM      4  C   UNL     1     102.488 116.378 110.546  1.00  0.00    -0.026 C 
ATOM      5  C   UNL     1     104.615 116.506 108.956  1.00  0.00     0.061 C 
ATOM      6  C   UNL     1     102.560 119.221 110.758  1.00  0.00     0.102 C 
ATOM      7  C   UNL     1     101.892 118.402 111.878  1.00  0.00     0.116 C 
ATOM      8  C   UNL     1     104.230 115.135 108.527  1.00  0.00    -0.020 A 
ATOM      9  C   UNL     1     102.297 114.953 110.175  1.00  0.00    -0.011 A 
ATOM     10  C   UNL     1     101.840 116.922 111.597  1.00  0.00    -0.007 C 
ATOM     11  C   UNL     1     103.158 114.483 109.173  1.00  0.00     0.010 A 
ATOM     12  C   UNL     1     103.058 113.198 108.662  1.00  0.00     0.046 A 
ATOM     13  C   UNL     1     104.758 114.257 107.609  1.00  0.00     0.087 A 
ATOM     14  C   UNL     1     101.339 114.049 110.659  1.00  0.00     0.009 A 
ATOM     15  C   UNL     1     102.105 112.293 109.132  1.00  0.00     0.027 A 
ATOM     16  C   UNL     1     101.251 112.746 110.147  1.00  0.00     0.003 A 
ATOM     17  H   UNL     1     104.206 112.257 107.145  1.00  0.00     0.166 HD
ENDROOT
BRANCH   7  18
ATOM     18  C   UNL     1     100.540 119.028 112.268  1.00  0.00     0.230 C 
ATOM     19  O   UNL     1      99.797 119.405 111.350  1.00  0.00    -0.274 OA
ATOM     20  N   UNL     1     100.128 119.132 113.595  1.00  0.00    -0.343 N 
BRANCH  20  21
ATOM     21  C   UNL     1      98.770 119.632 113.837  1.00  0.00     0.116 C 
ATOM     22  C   UNL     1      98.758 121.139 114.046  1.00  0.00     0.027 C 
ENDBRANCH  20  21
BRANCH  20  23
ATOM     23  C   UNL     1     100.906 118.774 114.785  1.00  0.00     0.116 C 
ATOM     24  C   UNL     1     100.020 118.408 115.967  1.00  0.00     0.027 C 
ENDBRANCH  20  23
ENDBRANCH   7  18
BRANCH   1  25
ATOM     25  C   UNL     1     104.884 118.508 111.163  1.00  0.00     0.085 C 
BRANCH  25  26
ATOM     26  C   UNL     1     106.121 119.361 110.835  1.00  0.00     0.012 C 
ATOM     27  C   UNL     1     107.239 118.570 110.170  1.00  0.00     0.005 C 
ENDBRANCH  25  26
ENDBRANCH   1  25
TORSDOF 5
ENDMDL
MODEL 5
REMARK VINA RESULT:    -7.852      1.712      6.960
REMARK INTER + INTRA:         -11.020
REMARK INTER:                 -10.430
REMARK INTRA:                  -0.590
REMARK UNBOUND:                -0.873
REMARK SMILES CCCN1C[C@H](C(=O)N(CC)CC)C=C2c3cccc4[nH]cc(c34)C[C@H]21
REMARK SMILES IDX 4 1 21 2 26 3 15 4 25 5 5 6 6 7 23 8 16 9 14 10 24 11 20 12
REMARK SMILES IDX 22 13 17 14 19 15 18 16 7 18 8 19 9 20 10 21 11 22 12 23
REMARK SMILES IDX 13 24 3 25 2 26 1 27
REMARK H PARENT 21 17
ROOT
ATOM      1  N   UNL     1     104.467 118.031 108.386  1.00  0.00    -0.295 NA
ATOM      2  N   UNL     1     103.381 112.199 107.226  1.00  0.00    -0.361 N 
ATOM      3  C   UNL     1     103.800 116.691 108.268  1.00  0.00     0.091 C 
ATOM      4  C   UNL     1     103.200 116.151 109.611  1.00  0.00    -0.026 C 
ATOM      5  C   UNL     1     104.649 115.657 107.438  1.00  0.00     0.061 C 
ATOM      6  C   UNL     1     103.582 118.939 109.150  1.00  0.00     0.102 C 
ATOM      7  C   UNL     1     103.275 118.451 110.577  1.00  0.00     0.116 C 
ATOM      8  C   UNL     1     104.025 114.308 107.473  1.00  0.00    -0.020 A 
ATOM      9  C   UNL     1     102.772 114.730 109.650  1.00  0.00    -0.011 A 
ATOM     10  C   UNL     1     103.004 116.971 110.666  1.00  0.00    -0.007 C 
ATOM     11  C   UNL     1     103.191 113.958 108.556  1.00  0.00     0.010 A 
ATOM     12  C   UNL     1     102.811 112.633 108.404  1.00  0.00     0.046 A 
ATOM     13  C   UNL     1     104.126 113.207 106.654  1.00  0.00     0.087 A 
ATOM     14  C   UNL     1     101.967 114.088 110.603  1.00  0.00     0.009 A 
ATOM     15  C   UNL     1     102.006 111.988 109.344  1.00  0.00     0.027 A 
ATOM     16  C   UNL     1     101.598 112.744 110.451  1.00  0.00     0.003 A 
ATOM     17  H   UNL     1     103.280 111.266 106.850  1.00  0.00     0.166 HD
ENDROOT
BRANCH   7  18
ATOM     18  C   UNL     1     102.200 119.340 111.230  1.00  0.00     0.230 C 
ATOM     19  O   UNL     1     101.068 118.856 111.376  1.00  0.00    -0.274 OA
ATOM     20  N   UNL     1     102.480 120.625 111.688  1.00  0.00    -0.343 N 
BRANCH  20  21
ATOM     21  C   UNL     1     101.410 121.330 112.402  1.00  0.00     0.116 C 
ATOM     22  C   UNL     1     101.562 122.840 112.290  1.00  0.00     0.027 C 
ENDBRANCH  20  21
BRANCH  20  23
ATOM     23  C   UNL     1     103.749 121.348 111.549  1.00  0.00     0.116 C 
ATOM     24  C   UNL     1     104.718 121.036 112.680  1.00  0.00     0.027 C 
ENDBRANCH  20  23
ENDBRANCH   7  18
BRANCH   1  25
ATOM     25  C   UNL     1     105.834 117.959 108.938  1.00  0.00     0.085 C 
BRANCH  25  26
ATOM     26  C   UNL     1     106.282 119.165 109.781  1.00  0.00     0.012 C 
ATOM     27  C   UNL     1     106.975 118.769 111.077  1.00  0.00     0.005 C 
ENDBRANCH  25  26
ENDBRANCH   1  25
TORSDOF 5
ENDMDL
MODEL 6
REMARK VINA RESULT:    -7.687      2.063      3.812
REMARK INTER + INTRA:         -10.807
REMARK INTER:                 -10.490
REMARK INTRA:                  -0.317
REMARK UNBOUND:                -0.873
REMARK SMILES CCCN1C[C@H](C(=O)N(CC)CC)C=C2c3cccc4[nH]cc(c34)C[C@H]21
REMARK SMILES IDX 4 1 21 2 26 3 15 4 25 5 5 6 6 7 23 8 16 9 14 10 24 11 20 12
REMARK SMILES IDX 22 13 17 14 19 15 18 16 7 18 8 19 9 20 10 21 11 22 12 23
REMARK SMILES IDX 13 24 3 25 2 26 1 27
REMARK H PARENT 21 17
ROOT
ATOM      1  N   UNL     1     104.684 114.609 108.993  1.00  0.00    -0.295 NA
ATOM      2  N   UNL     1     106.098 119.906 111.537  1.00  0.00    -0.361 N 
ATOM      3  C   UNL     1     104.700 115.809 109.895  1.00  0.00     0.091 C 
ATOM      4  C   UNL     1     103.321 116.544 110.011  1.00  0.00    -0.026 C 
ATOM      5  C   UNL     1     105.948 116.738 109.654  1.00  0.00     0.061 C 
ATOM      6  C   UNL     1     103.499 113.784 109.316  1.00  0.00     0.102 C 
ATOM      7  C   UNL     1     102.160 114.521 109.126  1.00  0.00     0.116 C 
ATOM      8  C   UNL     1     105.848 117.984 110.459  1.00  0.00    -0.020 A 
ATOM      9  C   UNL     1     103.310 117.884 110.652  1.00  0.00    -0.011 A 
ATOM     10  C   UNL     1     102.178 115.945 109.618  1.00  0.00    -0.007 C 
ATOM     11  C   UNL     1     104.576 118.453 110.852  1.00  0.00     0.010 A 
ATOM     12  C   UNL     1     104.741 119.665 111.505  1.00  0.00     0.046 A 
ATOM     13  C   UNL     1     106.780 118.894 110.899  1.00  0.00     0.087 A 
ATOM     14  C   UNL     1     102.208 118.613 111.125  1.00  0.00     0.009 A 
ATOM     15  C   UNL     1     103.653 120.395 111.985  1.00  0.00     0.027 A 
ATOM     16  C   UNL     1     102.381 119.844 111.774  1.00  0.00     0.003 A 
ATOM     17  H   UNL     1     106.526 120.722 111.953  1.00  0.00     0.166 HD
ENDROOT
BRANCH   7  18
ATOM     18  C   UNL     1     100.996 113.670 109.669  1.00  0.00     0.230 C 
ATOM     19  O   UNL     1     101.035 113.342 110.864  1.00  0.00    -0.274 OA
ATOM     20  N   UNL     1      99.908 113.313 108.876  1.00  0.00    -0.343 N 
BRANCH  20  21
ATOM     21  C   UNL     1      98.803 112.607 109.533  1.00  0.00     0.116 C 
ATOM     22  C   UNL     1      97.474 113.314 109.310  1.00  0.00     0.027 C 
ENDBRANCH  20  21
BRANCH  20  23
ATOM     23  C   UNL     1      99.739 113.586 107.445  1.00  0.00     0.116 C 
ATOM     24  C   UNL     1     100.949 113.155 106.628  1.00  0.00     0.027 C 
ENDBRANCH  20  23
ENDBRANCH   7  18
BRANCH   1  25
ATOM     25  C   UNL     1     104.775 114.951 107.560  1.00  0.00     0.085 C 
BRANCH  25  26
ATOM     26  C   UNL     1     105.281 113.833 106.633  1.00  0.00     0.012 C 
ATOM     27  C   UNL     1     104.167 113.146 105.856  1.00  0.00     0.005 C 
ENDBRANCH  25  26
ENDBRANCH   1  25
TORSDOF 5
ENDMDL
MODEL 7
REMARK VINA RESULT:    -7.631      3.363      8.295
REMARK INTER + INTRA:         -10.734
REMARK INTER:                  -9.938
REMARK INTRA:                  -0.797
REMARK UNBOUND:                -0.873
REMARK SMILES CCCN1C[C@H](C(=O)N(CC)CC)C=C2c3cccc4[nH]cc(c34)C[C@H]21
REMARK SMILES IDX 4 1 21 2 26 3 15 4 25 5 5 6 6 7 23 8 16 9 14 10 24 11 20 12
REMARK SMILES IDX 22 13 17 14 19 15 18 16 7 18 8 19 9 20 10 21 11 22 12 23
REMARK SMILES IDX 13 24 3 25 2 26 1 27
REMARK H PARENT 21 17
ROOT
ATOM      1  N   UNL     1      98.620 119.300 112.777  1.00  0.00    -0.295 NA
ATOM      2  N   UNL     1     104.192 118.284 110.664  1.00  0.00    -0.361 N 
ATOM      3  C   UNL     1     100.113 119.285 112.613  1.00  0.00     0.091 C 
ATOM      4  C   UNL     1     100.773 120.706 112.612  1.00  0.00    -0.026 C 
ATOM      5  C   UNL     1     100.592 118.311 111.473  1.00  0.00     0.061 C 
ATOM      6  C   UNL     1      98.271 120.214 113.887  1.00  0.00     0.102 C 
ATOM      7  C   UNL     1      98.724 121.668 113.660  1.00  0.00     0.116 C 
ATOM      8  C   UNL     1     102.056 118.438 111.246  1.00  0.00    -0.020 A 
ATOM      9  C   UNL     1     102.192 120.802 112.184  1.00  0.00    -0.011 A 
ATOM     10  C   UNL     1     100.102 121.786 113.063  1.00  0.00    -0.007 C 
ATOM     11  C   UNL     1     102.707 119.645 111.581  1.00  0.00     0.010 A 
ATOM     12  C   UNL     1     104.034 119.547 111.194  1.00  0.00     0.046 A 
ATOM     13  C   UNL     1     102.994 117.603 110.685  1.00  0.00     0.087 A 
ATOM     14  C   UNL     1     103.082 121.873 112.354  1.00  0.00     0.009 A 
ATOM     15  C   UNL     1     104.929 120.604 111.365  1.00  0.00     0.027 A 
ATOM     16  C   UNL     1     104.421 121.773 111.949  1.00  0.00     0.003 A 
ATOM     17  H   UNL     1     105.059 117.921 110.294  1.00  0.00     0.166 HD
ENDROOT
BRANCH   7  18
ATOM     18  C   UNL     1      98.503 122.505 114.934  1.00  0.00     0.230 C 
ATOM     19  O   UNL     1      99.474 122.672 115.686  1.00  0.00    -0.274 OA
ATOM     20  N   UNL     1      97.278 123.101 115.225  1.00  0.00    -0.343 N 
BRANCH  20  21
ATOM     21  C   UNL     1      97.220 123.975 116.401  1.00  0.00     0.116 C 
ATOM     22  C   UNL     1      97.164 125.444 116.006  1.00  0.00     0.027 C 
ENDBRANCH  20  21
BRANCH  20  23
ATOM     23  C   UNL     1      96.033 122.962 114.462  1.00  0.00     0.116 C 
ATOM     24  C   UNL     1      95.117 121.894 115.042  1.00  0.00     0.027 C 
ENDBRANCH  20  23
ENDBRANCH   7  18
BRANCH   1  25
ATOM     25  C   UNL     1      97.897 119.608 111.528  1.00  0.00     0.085 C 
BRANCH  25  26
ATOM     26  C   UNL     1      96.426 120.028 111.690  1.00  0.00     0.012 C 
ATOM     27  C   UNL     1      95.799 120.534 110.397  1.00  0.00     0.005 C 
ENDBRANCH  25  26
ENDBRANCH   1  25
TORSDOF 5
ENDMDL
MODEL 8
REMARK VINA RESULT:    -7.599      2.494      4.835
REMARK INTER + INTRA:         -10.693
REMARK INTER:                 -10.050
REMARK INTRA:                  -0.644
REMARK UNBOUND:                -0.873
REMARK SMILES CCCN1C[C@H](C(=O)N(CC)CC)C=C2c3cccc4[nH]cc(c34)C[C@H]21
REMARK SMILES IDX 4 1 21 2 26 3 15 4 25 5 5 6 6 7 23 8 16 9 14 10 24 11 20 12
REMARK SMILES IDX 22 13 17 14 19 15 18 16 7 18 8 19 9 20 10 21 11 22 12 23
REMARK SMILES IDX 13 24 3 25 2 26 1 27
REMARK H PARENT 21 17
ROOT
ATOM      1  N   UNL     1     103.468 114.368 108.945  1.00  0.00    -0.295 NA
ATOM      2  N   UNL     1     106.172 119.744 109.517  1.00  0.00    -0.361 N 
ATOM      3  C   UNL     1     104.085 115.611 109.520  1.00  0.00     0.091 C 
ATOM      4  C   UNL     1     103.156 116.389 110.513  1.00  0.00    -0.026 C 
ATOM      5  C   UNL     1     104.809 116.491 108.434  1.00  0.00     0.061 C 
ATOM      6  C   UNL     1     102.843 113.594 110.041  1.00  0.00     0.102 C 
ATOM      7  C   UNL     1     101.732 114.358 110.786  1.00  0.00     0.116 C 
ATOM      8  C   UNL     1     105.274 117.778 109.016  1.00  0.00    -0.020 A 
ATOM      9  C   UNL     1     103.571 117.758 110.911  1.00  0.00    -0.011 A 
ATOM     10  C   UNL     1     102.065 115.804 111.050  1.00  0.00    -0.007 C 
ATOM     11  C   UNL     1     104.617 118.302 110.151  1.00  0.00     0.010 A 
ATOM     12  C   UNL     1     105.170 119.539 110.442  1.00  0.00     0.046 A 
ATOM     13  C   UNL     1     106.240 118.682 108.642  1.00  0.00     0.087 A 
ATOM     14  C   UNL     1     103.089 118.541 111.971  1.00  0.00     0.009 A 
ATOM     15  C   UNL     1     104.702 120.322 111.498  1.00  0.00     0.027 A 
ATOM     16  C   UNL     1     103.644 119.797 112.253  1.00  0.00     0.003 A 
ATOM     17  H   UNL     1     106.757 120.567 109.478  1.00  0.00     0.166 HD
ENDROOT
BRANCH   7  18
ATOM     18  C   UNL     1     101.276 113.568 112.027  1.00  0.00     0.230 C 
ATOM     19  O   UNL     1     102.088 112.781 112.536  1.00  0.00    -0.274 OA
ATOM     20  N   UNL     1     100.019 113.750 112.600  1.00  0.00    -0.343 N 
BRANCH  20  21
ATOM     21  C   UNL     1      99.742 113.034 113.849  1.00  0.00     0.116 C 
ATOM     22  C   UNL     1      98.694 113.752 114.686  1.00  0.00     0.027 C 
ENDBRANCH  20  21
BRANCH  20  23
ATOM     23  C   UNL     1      98.941 114.605 112.092  1.00  0.00     0.116 C 
ATOM     24  C   UNL     1      98.300 114.040 110.832  1.00  0.00     0.027 C 
ENDBRANCH  20  23
ENDBRANCH   7  18
BRANCH   1  25
ATOM     25  C   UNL     1     102.540 114.636 107.829  1.00  0.00     0.085 C 
BRANCH  25  26
ATOM     26  C   UNL     1     102.251 113.448 106.896  1.00  0.00     0.012 C 
ATOM     27  C   UNL     1     100.836 113.456 106.332  1.00  0.00     0.005 C 
ENDBRANCH  25  26
ENDBRANCH   1  25
TORSDOF 5
ENDMDL
MODEL 9
REMARK VINA RESULT:    -7.495      1.952      6.448
REMARK INTER + INTRA:         -10.559
REMARK INTER:                 -10.171
REMARK INTRA:                  -0.387
REMARK UNBOUND:                -0.873
REMARK SMILES CCCN1C[C@H](C(=O)N(CC)CC)C=C2c3cccc4[nH]cc(c34)C[C@H]21
REMARK SMILES IDX 4 1 21 2 26 3 15 4 25 5 5 6 6 7 23 8 16 9 14 10 24 11 20 12
REMARK SMILES IDX 22 13 17 14 19 15 18 16 7 18 8 19 9 20 10 21 11 22 12 23
REMARK SMILES IDX 13 24 3 25 2 26 1 27
REMARK H PARENT 21 17
ROOT
ATOM      1  N   UNL     1     103.984 118.393 109.143  1.00  0.00    -0.295 NA
ATOM      2  N   UNL     1     102.398 112.922 107.118  1.00  0.00    -0.361 N 
ATOM      3  C   UNL     1     103.242 117.108 108.909  1.00  0.00     0.091 C 
ATOM      4  C   UNL     1     102.909 116.311 110.216  1.00  0.00    -0.026 C 
ATOM      5  C   UNL     1     103.849 116.259 107.730  1.00  0.00     0.061 C 
ATOM      6  C   UNL     1     103.323 119.132 110.241  1.00  0.00     0.102 C 
ATOM      7  C   UNL     1     103.295 118.366 111.577  1.00  0.00     0.116 C 
ATOM      8  C   UNL     1     103.181 114.934 107.631  1.00  0.00    -0.020 A 
ATOM      9  C   UNL     1     102.429 114.914 110.065  1.00  0.00    -0.011 A 
ATOM     10  C   UNL     1     102.976 116.901 111.428  1.00  0.00    -0.007 C 
ATOM     11  C   UNL     1     102.573 114.377 108.777  1.00  0.00     0.010 A 
ATOM     12  C   UNL     1     102.107 113.112 108.452  1.00  0.00     0.046 A 
ATOM     13  C   UNL     1     103.056 114.021 106.610  1.00  0.00     0.087 A 
ATOM     14  C   UNL     1     101.810 114.097 111.023  1.00  0.00     0.009 A 
ATOM     15  C   UNL     1     101.484 112.295 109.396  1.00  0.00     0.027 A 
ATOM     16  C   UNL     1     101.351 112.814 110.691  1.00  0.00     0.003 A 
ATOM     17  H   UNL     1     102.176 112.086 106.596  1.00  0.00     0.166 HD
ENDROOT
BRANCH   7  18
ATOM     18  C   UNL     1     102.423 119.111 112.605  1.00  0.00     0.230 C 
ATOM     19  O   UNL     1     102.952 119.433 113.679  1.00  0.00    -0.274 OA
ATOM     20  N   UNL     1     101.101 119.462 112.339  1.00  0.00    -0.343 N 
BRANCH  20  21
ATOM     21  C   UNL     1     100.409 120.277 113.343  1.00  0.00     0.116 C 
ATOM     22  C   UNL     1      99.609 119.415 114.309  1.00  0.00     0.027 C 
ENDBRANCH  20  21
BRANCH  20  23
ATOM     23  C   UNL     1     100.327 119.117 111.142  1.00  0.00     0.116 C 
ATOM     24  C   UNL     1      99.341 120.211 110.756  1.00  0.00     0.027 C 
ENDBRANCH  20  23
ENDBRANCH   7  18
BRANCH   1  25
ATOM     25  C   UNL     1     105.430 118.202 109.366  1.00  0.00     0.085 C 
BRANCH  25  26
ATOM     26  C   UNL     1     106.173 119.389 110.003  1.00  0.00     0.012 C 
ATOM     27  C   UNL     1     107.029 118.991 111.198  1.00  0.00     0.005 C 
ENDBRANCH  25  26
ENDBRANCH   1  25
TORSDOF 5
ENDMDL
MODEL 10
REMARK VINA RESULT:    -7.383      2.352      6.329
REMARK INTER + INTRA:         -10.414
REMARK INTER:                  -9.878
REMARK INTRA:                  -0.537
REMARK UNBOUND:                -0.873
REMARK SMILES CCCN1C[C@H](C(=O)N(CC)CC)C=C2c3cccc4[nH]cc(c34)C[C@H]21
REMARK SMILES IDX 4 1 21 2 26 3 15 4 25 5 5 6 6 7 23 8 16 9 14 10 24 11 20 12
REMARK SMILES IDX 22 13 17 14 19 15 18 16 7 18 8 19 9 20 10 21 11 22 12 23
REMARK SMILES IDX 13 24 3 25 2 26 1 27
REMARK H PARENT 21 17
ROOT
ATOM      1  N   UNL     1     102.830 119.721 111.516  1.00  0.00    -0.295 NA
ATOM      2  N   UNL     1     102.830 114.141 109.193  1.00  0.00    -0.361 N 
ATOM      3  C   UNL     1     102.389 118.394 110.969  1.00  0.00     0.091 C 
ATOM      4  C   UNL     1     101.422 117.600 111.913  1.00  0.00    -0.026 C 
ATOM      5  C   UNL     1     103.576 117.562 110.356  1.00  0.00     0.061 C 
ATOM      6  C   UNL     1     101.646 120.440 112.038  1.00  0.00     0.102 C 
ATOM      7  C   UNL     1     100.917 119.694 113.171  1.00  0.00     0.116 C 
ATOM      8  C   UNL     1     103.124 116.200 109.964  1.00  0.00    -0.020 A 
ATOM      9  C   UNL     1     101.159 116.176 111.584  1.00  0.00    -0.011 A 
ATOM     10  C   UNL     1     100.789 118.211 112.936  1.00  0.00    -0.007 C 
ATOM     11  C   UNL     1     102.008 115.628 110.611  1.00  0.00     0.010 A 
ATOM     12  C   UNL     1     101.846 114.335 110.139  1.00  0.00     0.046 A 
ATOM     13  C   UNL     1     103.616 115.266 109.082  1.00  0.00     0.087 A 
ATOM     14  C   UNL     1     100.146 115.341 112.079  1.00  0.00     0.009 A 
ATOM     15  C   UNL     1     100.838 113.498 110.621  1.00  0.00     0.027 A 
ATOM     16  C   UNL     1      99.995 114.029 111.607  1.00  0.00     0.003 A 
ATOM     17  H   UNL     1     102.964 113.285 108.672  1.00  0.00     0.166 HD
ENDROOT
BRANCH   7  18
ATOM     18  C   UNL     1      99.595 120.405 113.519  1.00  0.00     0.230 C 
ATOM     19  O   UNL     1      99.545 121.030 114.588  1.00  0.00    -0.274 OA
ATOM     20  N   UNL     1      98.501 120.398 112.655  1.00  0.00    -0.343 N 
BRANCH  20  21
ATOM     21  C   UNL     1      97.342 121.211 113.037  1.00  0.00     0.116 C 
ATOM     22  C   UNL     1      96.039 120.442 112.870  1.00  0.00     0.027 C 
ENDBRANCH  20  21
BRANCH  20  23
ATOM     23  C   UNL     1      98.393 119.673 111.385  1.00  0.00     0.116 C 
ATOM     24  C   UNL     1      98.589 120.584 110.182  1.00  0.00     0.027 C 
ENDBRANCH  20  23
ENDBRANCH   7  18
BRANCH   1  25
ATOM     25  C   UNL     1     103.921 119.616 112.504  1.00  0.00     0.085 C 
BRANCH  25  26
ATOM     26  C   UNL     1     105.215 120.372 112.159  1.00  0.00     0.012 C 
ATOM     27  C   UNL     1     105.007 121.870 111.982  1.00  0.00     0.005 C 
ENDBRANCH  25  26
ENDBRANCH   1  25
TORSDOF 5
ENDMDL
MODEL 11
REMARK VINA RESULT:    -7.071      1.240      1.893
REMARK INTER + INTRA:         -10.011
REMARK INTER:                 -10.038
REMARK INTRA:                   0.027
REMARK UNBOUND:                -0.873
REMARK SMILES CCCN1C[C@H](C(=O)N(CC)CC)C=C2c3cccc4[nH]cc(c34)C[C@H]21
REMARK SMILES IDX 4 1 21 2 26 3 15 4 25 5 5 6 6 7 23 8 16 9 14 10 24 11 20 12
REMARK SMILES IDX 22 13 17 14 19 15 18 16 7 18 8 19 9 20 10 21 11 22 12 23
REMARK SMILES IDX 13 24 3 25 2 26 1 27
REMARK H PARENT 21 17
ROOT
ATOM      1  N   UNL     1     104.729 118.286 110.684  1.00  0.00    -0.295 NA
ATOM      2  N   UNL     1     101.422 122.843 112.885  1.00  0.00    -0.361 N 
ATOM      3  C   UNL     1     103.669 119.079 111.394  1.00  0.00     0.091 C 
ATOM      4  C   UNL     1     102.204 118.706 110.983  1.00  0.00    -0.026 C 
ATOM      5  C   UNL     1     103.990 120.619 111.446  1.00  0.00     0.061 C 
ATOM      6  C   UNL     1     104.356 116.854 110.716  1.00  0.00     0.102 C 
ATOM      7  C   UNL     1     103.012 116.547 110.029  1.00  0.00     0.116 C 
ATOM      8  C   UNL     1     102.851 121.381 112.022  1.00  0.00    -0.020 A 
ATOM      9  C   UNL     1     101.115 119.616 111.421  1.00  0.00    -0.011 A 
ATOM     10  C   UNL     1     101.935 117.558 110.326  1.00  0.00    -0.007 C 
ATOM     11  C   UNL     1     101.547 120.847 111.937  1.00  0.00     0.010 A 
ATOM     12  C   UNL     1     100.660 121.776 112.459  1.00  0.00     0.046 A 
ATOM     13  C   UNL     1     102.755 122.616 112.619  1.00  0.00     0.087 A 
ATOM     14  C   UNL     1      99.733 119.377 111.433  1.00  0.00     0.009 A 
ATOM     15  C   UNL     1      99.284 121.546 112.481  1.00  0.00     0.027 A 
ATOM     16  C   UNL     1      98.839 120.326 111.950  1.00  0.00     0.003 A 
ATOM     17  H   UNL     1     101.050 123.679 113.312  1.00  0.00     0.166 HD
ENDROOT
BRANCH   7  18
ATOM     18  C   UNL     1     102.604 115.083 110.278  1.00  0.00     0.230 C 
ATOM     19  O   UNL     1     103.251 114.200 109.696  1.00  0.00    -0.274 OA
ATOM     20  N   UNL     1     101.580 114.739 111.158  1.00  0.00    -0.343 N 
BRANCH  20  21
ATOM     21  C   UNL     1     101.363 113.310 111.408  1.00  0.00     0.116 C 
ATOM     22  C   UNL     1     102.293 112.783 112.491  1.00  0.00     0.027 C 
ENDBRANCH  20  21
BRANCH  20  23
ATOM     23  C   UNL     1     100.701 115.663 111.883  1.00  0.00     0.116 C 
ATOM     24  C   UNL     1      99.358 115.033 112.225  1.00  0.00     0.027 C 
ENDBRANCH  20  23
ENDBRANCH   7  18
BRANCH   1  25
ATOM     25  C   UNL     1     105.013 118.777 109.321  1.00  0.00     0.085 C 
BRANCH  25  26
ATOM     26  C   UNL     1     106.480 118.686 108.868  1.00  0.00     0.012 C 
ATOM     27  C   UNL     1     107.465 118.616 110.027  1.00  0.00     0.005 C 
ENDBRANCH  25  26
ENDBRANCH   1  25
TORSDOF 5
ENDMDL
MODEL 12
REMARK VINA RESULT:    -6.885      7.188     10.955
REMARK INTER + INTRA:          -9.771
REMARK INTER:                  -8.912
REMARK INTRA:                  -0.859
REMARK UNBOUND:                -0.873
REMARK SMILES CCCN1C[C@H](C(=O)N(CC)CC)C=C2c3cccc4[nH]cc(c34)C[C@H]21
REMARK SMILES IDX 4 1 21 2 26 3 15 4 25 5 5 6 6 7 23 8 16 9 14 10 24 11 20 12
REMARK SMILES IDX 22 13 17 14 19 15 18 16 7 18 8 19 9 20 10 21 11 22 12 23
REMARK SMILES IDX 13 24 3 25 2 26 1 27
REMARK H PARENT 21 17
ROOT
ATOM      1  N   UNL     1      94.565 121.413 116.433  1.00  0.00    -0.295 NA
ATOM      2  N   UNL     1      92.130 116.599 119.159  1.00  0.00    -0.361 N 
ATOM      3  C   UNL     1      94.343 120.031 116.978  1.00  0.00     0.091 C 
ATOM      4  C   UNL     1      94.489 118.890 115.914  1.00  0.00    -0.026 C 
ATOM      5  C   UNL     1      93.076 119.938 117.907  1.00  0.00     0.061 C 
ATOM      6  C   UNL     1      95.791 121.408 115.604  1.00  0.00     0.102 C 
ATOM      7  C   UNL     1      95.725 120.445 114.404  1.00  0.00     0.116 C 
ATOM      8  C   UNL     1      92.809 118.529 118.302  1.00  0.00    -0.020 A 
ATOM      9  C   UNL     1      94.021 117.533 116.295  1.00  0.00    -0.011 A 
ATOM     10  C   UNL     1      95.094 119.116 114.729  1.00  0.00    -0.007 C 
ATOM     11  C   UNL     1      93.263 117.480 117.474  1.00  0.00     0.010 A 
ATOM     12  C   UNL     1      92.815 116.280 118.006  1.00  0.00     0.046 A 
ATOM     13  C   UNL     1      92.115 117.964 119.346  1.00  0.00     0.087 A 
ATOM     14  C   UNL     1      94.286 116.311 115.660  1.00  0.00     0.009 A 
ATOM     15  C   UNL     1      93.079 115.059 117.385  1.00  0.00     0.027 A 
ATOM     16  C   UNL     1      93.820 115.102 116.195  1.00  0.00     0.003 A 
ATOM     17  H   UNL     1      91.686 115.925 119.766  1.00  0.00     0.166 HD
ENDROOT
BRANCH   7  18
ATOM     18  C   UNL     1      97.099 120.351 113.714  1.00  0.00     0.230 C 
ATOM     19  O   UNL     1      98.051 119.931 114.388  1.00  0.00    -0.274 OA
ATOM     20  N   UNL     1      97.277 120.675 112.371  1.00  0.00    -0.343 N 
BRANCH  20  21
ATOM     21  C   UNL     1      98.602 120.430 111.792  1.00  0.00     0.116 C 
ATOM     22  C   UNL     1      99.376 121.724 111.595  1.00  0.00     0.027 C 
ENDBRANCH  20  21
BRANCH  20  23
ATOM     23  C   UNL     1      96.266 121.224 111.461  1.00  0.00     0.116 C 
ATOM     24  C   UNL     1      95.882 120.241 110.364  1.00  0.00     0.027 C 
ENDBRANCH  20  23
ENDBRANCH   7  18
BRANCH   1  25
ATOM     25  C   UNL     1      93.392 121.959 115.723  1.00  0.00     0.085 C 
BRANCH  25  26
ATOM     26  C   UNL     1      93.470 123.447 115.341  1.00  0.00     0.012 C 
ATOM     27  C   UNL     1      93.491 124.377 116.546  1.00  0.00     0.005 C 
ENDBRANCH  25  26
ENDBRANCH   1  25
TORSDOF 5
ENDMDL
MODEL 13
REMARK VINA RESULT:    -6.882      2.028      3.832
REMARK INTER + INTRA:          -9.767
REMARK INTER:                  -8.892
REMARK INTRA:                  -0.875
REMARK UNBOUND:                -0.873
REMARK SMILES CCCN1C[C@H](C(=O)N(CC)CC)C=C2c3cccc4[nH]cc(c34)C[C@H]21
REMARK SMILES IDX 4 1 21 2 26 3 15 4 25 5 5 6 6 7 23 8 16 9 14 10 24 11 20 12
REMARK SMILES IDX 22 13 17 14 19 15 18 16 7 18 8 19 9 20 10 21 11 22 12 23
REMARK SMILES IDX 13 24 3 25 2 26 1 27
REMARK H PARENT 21 17
ROOT
ATOM      1  N   UNL     1     102.081 120.208 113.046  1.00  0.00    -0.295 NA
ATOM      2  N   UNL     1      96.507 122.429 113.776  1.00  0.00    -0.361 N 
ATOM      3  C   UNL     1     100.587 120.340 113.124  1.00  0.00     0.091 C 
ATOM      4  C   UNL     1      99.834 119.883 111.828  1.00  0.00    -0.026 C 
ATOM      5  C   UNL     1     100.127 121.719 113.728  1.00  0.00     0.061 C 
ATOM      6  C   UNL     1     102.414 118.874 112.500  1.00  0.00     0.102 C 
ATOM      7  C   UNL     1     101.856 118.625 111.086  1.00  0.00     0.116 C 
ATOM      8  C   UNL     1      98.649 121.868 113.648  1.00  0.00    -0.020 A 
ATOM      9  C   UNL     1      98.395 120.233 111.711  1.00  0.00    -0.011 A 
ATOM     10  C   UNL     1     100.449 119.129 110.894  1.00  0.00    -0.007 C 
ATOM     11  C   UNL     1      97.934 121.159 112.659  1.00  0.00     0.010 A 
ATOM     12  C   UNL     1      96.601 121.533 112.733  1.00  0.00     0.046 A 
ATOM     13  C   UNL     1      97.746 122.645 114.336  1.00  0.00     0.087 A 
ATOM     14  C   UNL     1      97.444 119.719 110.818  1.00  0.00     0.009 A 
ATOM     15  C   UNL     1      95.646 121.022 111.853  1.00  0.00     0.027 A 
ATOM     16  C   UNL     1      96.099 120.110 110.889  1.00  0.00     0.003 A 
ATOM     17  H   UNL     1      95.650 122.878 114.070  1.00  0.00     0.166 HD
ENDROOT
BRANCH   7  18
ATOM     18  C   UNL     1     102.074 117.157 110.674  1.00  0.00     0.230 C 
ATOM     19  O   UNL     1     101.468 116.286 111.315  1.00  0.00    -0.274 OA
ATOM     20  N   UNL     1     102.879 116.803 109.594  1.00  0.00    -0.343 N 
BRANCH  20  21
ATOM     21  C   UNL     1     102.913 115.385 109.219  1.00  0.00     0.116 C 
ATOM     22  C   UNL     1     102.879 115.203 107.709  1.00  0.00     0.027 C 
ENDBRANCH  20  21
BRANCH  20  23
ATOM     23  C   UNL     1     103.690 117.708 108.772  1.00  0.00     0.116 C 
ATOM     24  C   UNL     1     105.162 117.675 109.157  1.00  0.00     0.027 C 
ENDBRANCH  20  23
ENDBRANCH   7  18
BRANCH   1  25
ATOM     25  C   UNL     1     102.730 121.311 112.310  1.00  0.00     0.085 C 
BRANCH  25  26
ATOM     26  C   UNL     1     104.268 121.308 112.315  1.00  0.00     0.012 C 
ATOM     27  C   UNL     1     104.873 120.869 110.988  1.00  0.00     0.005 C 
ENDBRANCH  25  26
ENDBRANCH   1  25
TORSDOF 5
ENDMDL
MODEL 14
REMARK VINA RESULT:    -6.869      4.225      7.355
REMARK INTER + INTRA:          -9.750
REMARK INTER:                  -8.826
REMARK INTRA:                  -0.924
REMARK UNBOUND:                -0.873
REMARK SMILES CCCN1C[C@H](C(=O)N(CC)CC)C=C2c3cccc4[nH]cc(c34)C[C@H]21
REMARK SMILES IDX 4 1 21 2 26 3 15 4 25 5 5 6 6 7 23 8 16 9 14 10 24 11 20 12
REMARK SMILES IDX 22 13 17 14 19 15 18 16 7 18 8 19 9 20 10 21 11 22 12 23
REMARK SMILES IDX 13 24 3 25 2 26 1 27
REMARK H PARENT 21 17
ROOT
ATOM      1  N   UNL     1      97.664 120.786 112.215  1.00  0.00    -0.295 NA
ATOM      2  N   UNL     1      95.369 118.463 117.302  1.00  0.00    -0.361 N 
ATOM      3  C   UNL     1      97.505 120.298 113.627  1.00  0.00     0.091 C 
ATOM      4  C   UNL     1      98.573 119.238 114.065  1.00  0.00    -0.026 C 
ATOM      5  C   UNL     1      96.013 119.951 113.988  1.00  0.00     0.061 C 
ATOM      6  C   UNL     1      99.088 121.117 111.983  1.00  0.00     0.102 C 
ATOM      7  C   UNL     1     100.042 119.921 112.167  1.00  0.00     0.116 C 
ATOM      8  C   UNL     1      95.922 119.334 115.338  1.00  0.00    -0.020 A 
ATOM      9  C   UNL     1      98.331 118.504 115.333  1.00  0.00    -0.011 A 
ATOM     10  C   UNL     1      99.709 119.060 113.358  1.00  0.00    -0.007 C 
ATOM     11  C   UNL     1      97.043 118.658 115.867  1.00  0.00     0.010 A 
ATOM     12  C   UNL     1      96.681 118.099 117.083  1.00  0.00     0.046 A 
ATOM     13  C   UNL     1      94.896 119.209 116.245  1.00  0.00     0.087 A 
ATOM     14  C   UNL     1      99.234 117.732 116.078  1.00  0.00     0.009 A 
ATOM     15  C   UNL     1      97.574 117.335 117.835  1.00  0.00     0.027 A 
ATOM     16  C   UNL     1      98.859 117.159 117.301  1.00  0.00     0.003 A 
ATOM     17  H   UNL     1      94.829 118.200 118.115  1.00  0.00     0.166 HD
ENDROOT
BRANCH   7  18
ATOM     18  C   UNL     1     101.508 120.389 112.104  1.00  0.00     0.230 C 
ATOM     19  O   UNL     1     101.797 121.448 112.681  1.00  0.00    -0.274 OA
ATOM     20  N   UNL     1     102.497 119.641 111.469  1.00  0.00    -0.343 N 
BRANCH  20  21
ATOM     21  C   UNL     1     103.877 120.124 111.579  1.00  0.00     0.116 C 
ATOM     22  C   UNL     1     104.688 119.794 110.335  1.00  0.00     0.027 C 
ENDBRANCH  20  21
BRANCH  20  23
ATOM     23  C   UNL     1     102.305 118.400 110.711  1.00  0.00     0.116 C 
ATOM     24  C   UNL     1     102.417 117.163 111.591  1.00  0.00     0.027 C 
ENDBRANCH  20  23
ENDBRANCH   7  18
BRANCH   1  25
ATOM     25  C   UNL     1      97.117 119.856 111.209  1.00  0.00     0.085 C 
BRANCH  25  26
ATOM     26  C   UNL     1      96.093 120.453 110.229  1.00  0.00     0.012 C 
ATOM     27  C   UNL     1      95.310 121.620 110.816  1.00  0.00     0.005 C 
ENDBRANCH  25  26
ENDBRANCH   1  25
TORSDOF 5
ENDMDL
MODEL 15
REMARK VINA RESULT:    -6.804      7.437     10.883
REMARK INTER + INTRA:          -9.666
REMARK INTER:                  -8.901
REMARK INTRA:                  -0.764
REMARK UNBOUND:                -0.873
REMARK SMILES CCCN1C[C@H](C(=O)N(CC)CC)C=C2c3cccc4[nH]cc(c34)C[C@H]21
REMARK SMILES IDX 4 1 21 2 26 3 15 4 25 5 5 6 6 7 23 8 16 9 14 10 24 11 20 12
REMARK SMILES IDX 22 13 17 14 19 15 18 16 7 18 8 19 9 20 10 21 11 22 12 23
REMARK SMILES IDX 13 24 3 25 2 26 1 27
REMARK H PARENT 21 17
ROOT
ATOM      1  N   UNL     1      94.431 119.221 115.648  1.00  0.00    -0.295 NA
ATOM      2  N   UNL     1      93.903 113.224 116.190  1.00  0.00    -0.361 N 
ATOM      3  C   UNL     1      94.565 117.806 116.134  1.00  0.00     0.091 C 
ATOM      4  C   UNL     1      96.045 117.316 116.286  1.00  0.00    -0.026 C 
ATOM      5  C   UNL     1      93.591 116.813 115.396  1.00  0.00     0.061 C 
ATOM      6  C   UNL     1      95.357 120.080 116.421  1.00  0.00     0.102 C 
ATOM      7  C   UNL     1      96.838 119.682 116.278  1.00  0.00     0.116 C 
ATOM      8  C   UNL     1      93.860 115.407 115.799  1.00  0.00    -0.020 A 
ATOM      9  C   UNL     1      96.269 115.862 116.491  1.00  0.00    -0.011 A 
ATOM     10  C   UNL     1      97.070 118.194 116.312  1.00  0.00    -0.007 C 
ATOM     11  C   UNL     1      95.144 115.055 116.268  1.00  0.00     0.010 A 
ATOM     12  C   UNL     1      95.167 113.686 116.489  1.00  0.00     0.046 A 
ATOM     13  C   UNL     1      93.102 114.260 115.764  1.00  0.00     0.087 A 
ATOM     14  C   UNL     1      97.435 115.214 116.926  1.00  0.00     0.009 A 
ATOM     15  C   UNL     1      96.319 113.033 116.928  1.00  0.00     0.027 A 
ATOM     16  C   UNL     1      97.456 113.828 117.135  1.00  0.00     0.003 A 
ATOM     17  H   UNL     1      93.616 112.257 116.257  1.00  0.00     0.166 HD
ENDROOT
BRANCH   7  18
ATOM     18  C   UNL     1      97.708 120.490 117.259  1.00  0.00     0.230 C 
ATOM     19  O   UNL     1      97.897 120.010 118.386  1.00  0.00    -0.274 OA
ATOM     20  N   UNL     1      98.308 121.694 116.897  1.00  0.00    -0.343 N 
BRANCH  20  21
ATOM     21  C   UNL     1      99.214 122.311 117.872  1.00  0.00     0.116 C 
ATOM     22  C   UNL     1      99.176 123.830 117.789  1.00  0.00     0.027 C 
ENDBRANCH  20  21
BRANCH  20  23
ATOM     23  C   UNL     1      98.145 122.407 115.625  1.00  0.00     0.116 C 
ATOM     24  C   UNL     1      99.130 121.931 114.566  1.00  0.00     0.027 C 
ENDBRANCH  20  23
ENDBRANCH   7  18
BRANCH   1  25
ATOM     25  C   UNL     1      94.600 119.358 114.189  1.00  0.00     0.085 C 
BRANCH  25  26
ATOM     26  C   UNL     1      95.282 120.652 113.711  1.00  0.00     0.012 C 
ATOM     27  C   UNL     1      96.276 120.424 112.579  1.00  0.00     0.005 C 
ENDBRANCH  25  26
ENDBRANCH   1  25
TORSDOF 5
ENDMDL
MODEL 16
REMARK VINA RESULT:    -6.715      2.445      4.726
REMARK INTER + INTRA:          -9.551
REMARK INTER:                  -9.295
REMARK INTRA:                  -0.257
REMARK UNBOUND:                -0.873
REMARK SMILES CCCN1C[C@H](C(=O)N(CC)CC)C=C2c3cccc4[nH]cc(c34)C[C@H]21
REMARK SMILES IDX 4 1 21 2 26 3 15 4 25 5 5 6 6 7 23 8 16 9 14 10 24 11 20 12
REMARK SMILES IDX 22 13 17 14 19 15 18 16 7 18 8 19 9 20 10 21 11 22 12 23
REMARK SMILES IDX 13 24 3 25 2 26 1 27
REMARK H PARENT 21 17
ROOT
ATOM      1  N   UNL     1      99.606 115.007 111.937  1.00  0.00    -0.295 NA
ATOM      2  N   UNL     1     101.224 120.757 112.863  1.00  0.00    -0.361 N 
ATOM      3  C   UNL     1     100.212 116.372 111.775  1.00  0.00     0.091 C 
ATOM      4  C   UNL     1     101.761 116.363 111.540  1.00  0.00    -0.026 C 
ATOM      5  C   UNL     1      99.692 117.401 112.847  1.00  0.00     0.061 C 
ATOM      6  C   UNL     1     100.128 114.125 110.870  1.00  0.00     0.102 C 
ATOM      7  C   UNL     1     101.659 113.955 110.897  1.00  0.00     0.116 C 
ATOM      8  C   UNL     1     100.425 118.691 112.745  1.00  0.00    -0.020 A 
ATOM      9  C   UNL     1     102.479 117.660 111.646  1.00  0.00    -0.011 A 
ATOM     10  C   UNL     1     102.404 115.235 111.174  1.00  0.00    -0.007 C 
ATOM     11  C   UNL     1     101.727 118.707 112.199  1.00  0.00     0.010 A 
ATOM     12  C   UNL     1     102.225 119.997 112.297  1.00  0.00     0.046 A 
ATOM     13  C   UNL     1     100.127 119.973 113.145  1.00  0.00     0.087 A 
ATOM     14  C   UNL     1     103.777 117.974 111.218  1.00  0.00     0.009 A 
ATOM     15  C   UNL     1     103.513 120.321 111.868  1.00  0.00     0.027 A 
ATOM     16  C   UNL     1     104.281 119.277 111.331  1.00  0.00     0.003 A 
ATOM     17  H   UNL     1     101.297 121.746 113.060  1.00  0.00     0.166 HD
ENDROOT
BRANCH   7  18
ATOM     18  C   UNL     1     102.137 113.191 109.648  1.00  0.00     0.230 C 
ATOM     19  O   UNL     1     102.040 111.956 109.660  1.00  0.00    -0.274 OA
ATOM     20  N   UNL     1     102.619 113.849 108.518  1.00  0.00    -0.343 N 
BRANCH  20  21
ATOM     21  C   UNL     1     102.930 113.024 107.345  1.00  0.00     0.116 C 
ATOM     22  C   UNL     1     101.925 113.244 106.224  1.00  0.00     0.027 C 
ENDBRANCH  20  21
BRANCH  20  23
ATOM     23  C   UNL     1     102.834 115.292 108.368  1.00  0.00     0.116 C 
ATOM     24  C   UNL     1     104.270 115.627 107.993  1.00  0.00     0.027 C 
ENDBRANCH  20  23
ENDBRANCH   7  18
BRANCH   1  25
ATOM     25  C   UNL     1      99.783 114.443 113.289  1.00  0.00     0.085 C 
BRANCH  25  26
ATOM     26  C   UNL     1      98.490 114.106 114.050  1.00  0.00     0.012 C 
ATOM     27  C   UNL     1      98.641 114.199 115.563  1.00  0.00     0.005 C 
ENDBRANCH  25  26
ENDBRANCH   1  25
TORSDOF 5
ENDMDL
MODEL 17
REMARK VINA RESULT:    -6.687      2.753      6.811
REMARK INTER + INTRA:          -9.515
REMARK INTER:                  -9.312
REMARK INTRA:                  -0.203
REMARK UNBOUND:                -0.873
REMARK SMILES CCCN1C[C@H](C(=O)N(CC)CC)C=C2c3cccc4[nH]cc(c34)C[C@H]21
REMARK SMILES IDX 4 1 21 2 26 3 15 4 25 5 5 6 6 7 23 8 16 9 14 10 24 11 20 12
REMARK SMILES IDX 22 13 17 14 19 15 18 16 7 18 8 19 9 20 10 21 11 22 12 23
REMARK SMILES IDX 13 24 3 25 2 26 1 27
REMARK H PARENT 21 17
ROOT
ATOM      1  N   UNL     1     103.681 114.573 107.472  1.00  0.00    -0.295 NA
ATOM      2  N   UNL     1      98.091 112.994 109.143  1.00  0.00    -0.361 N 
ATOM      3  C   UNL     1     102.332 114.551 108.132  1.00  0.00     0.091 C 
ATOM      4  C   UNL     1     102.383 114.612 109.697  1.00  0.00    -0.026 C 
ATOM      5  C   UNL     1     101.373 113.461 107.524  1.00  0.00     0.061 C 
ATOM      6  C   UNL     1     104.496 115.646 108.085  1.00  0.00     0.102 C 
ATOM      7  C   UNL     1     104.726 115.463 109.597  1.00  0.00     0.116 C 
ATOM      8  C   UNL     1     100.108 113.373 108.301  1.00  0.00    -0.020 A 
ATOM      9  C   UNL     1     101.128 114.319 110.435  1.00  0.00    -0.011 A 
ATOM     10  C   UNL     1     103.502 114.998 110.344  1.00  0.00    -0.007 C 
ATOM     11  C   UNL     1     100.100 113.768 109.657  1.00  0.00     0.010 A 
ATOM     12  C   UNL     1      98.842 113.507 110.179  1.00  0.00     0.046 A 
ATOM     13  C   UNL     1      98.852 112.902 107.998  1.00  0.00     0.087 A 
ATOM     14  C   UNL     1     100.831 114.573 111.783  1.00  0.00     0.009 A 
ATOM     15  C   UNL     1      98.535 113.762 111.516  1.00  0.00     0.027 A 
ATOM     16  C   UNL     1      99.561 114.296 112.308  1.00  0.00     0.003 A 
ATOM     17  H   UNL     1      97.125 112.708 109.222  1.00  0.00     0.166 HD
ENDROOT
BRANCH   7  18
ATOM     18  C   UNL     1     105.405 116.711 110.192  1.00  0.00     0.230 C 
ATOM     19  O   UNL     1     106.615 116.635 110.453  1.00  0.00    -0.274 OA
ATOM     20  N   UNL     1     104.716 117.905 110.391  1.00  0.00    -0.343 N 
BRANCH  20  21
ATOM     21  C   UNL     1     105.495 119.060 110.848  1.00  0.00     0.116 C 
ATOM     22  C   UNL     1     104.742 120.364 110.633  1.00  0.00     0.027 C 
ENDBRANCH  20  21
BRANCH  20  23
ATOM     23  C   UNL     1     103.284 118.136 110.174  1.00  0.00     0.116 C 
ATOM     24  C   UNL     1     102.473 117.980 111.452  1.00  0.00     0.027 C 
ENDBRANCH  20  23
ENDBRANCH   7  18
BRANCH   1  25
ATOM     25  C   UNL     1     104.358 113.261 107.477  1.00  0.00     0.085 C 
BRANCH  25  26
ATOM     26  C   UNL     1     104.702 112.678 106.096  1.00  0.00     0.012 C 
ATOM     27  C   UNL     1     103.507 112.618 105.154  1.00  0.00     0.005 C 
ENDBRANCH  25  26
ENDBRANCH   1  25
TORSDOF 5
ENDMDL
MODEL 18
REMARK VINA RESULT:    -6.555      6.407      9.744
REMARK INTER + INTRA:          -9.344
REMARK INTER:                  -8.437
REMARK INTRA:                  -0.906
REMARK UNBOUND:                -0.873
REMARK SMILES CCCN1C[C@H](C(=O)N(CC)CC)C=C2c3cccc4[nH]cc(c34)C[C@H]21
REMARK SMILES IDX 4 1 21 2 26 3 15 4 25 5 5 6 6 7 23 8 16 9 14 10 24 11 20 12
REMARK SMILES IDX 22 13 17 14 19 15 18 16 7 18 8 19 9 20 10 21 11 22 12 23
REMARK SMILES IDX 13 24 3 25 2 26 1 27
REMARK H PARENT 21 17
ROOT
ATOM      1  N   UNL     1      95.749 121.110 116.167  1.00  0.00    -0.295 NA
ATOM      2  N   UNL     1      92.178 116.737 118.326  1.00  0.00    -0.361 N 
ATOM      3  C   UNL     1      95.251 119.807 116.725  1.00  0.00     0.091 C 
ATOM      4  C   UNL     1      95.650 118.551 115.877  1.00  0.00    -0.026 C 
ATOM      5  C   UNL     1      93.745 119.873 117.177  1.00  0.00     0.061 C 
ATOM      6  C   UNL     1      97.176 120.959 115.803  1.00  0.00     0.102 C 
ATOM      7  C   UNL     1      97.435 119.874 114.741  1.00  0.00     0.116 C 
ATOM      8  C   UNL     1      93.252 118.530 117.582  1.00  0.00    -0.020 A 
ATOM      9  C   UNL     1      94.977 117.266 116.197  1.00  0.00    -0.011 A 
ATOM     10  C   UNL     1      96.629 118.618 114.950  1.00  0.00    -0.007 C 
ATOM     11  C   UNL     1      93.870 117.377 117.051  1.00  0.00     0.010 A 
ATOM     12  C   UNL     1      93.178 116.264 117.504  1.00  0.00     0.046 A 
ATOM     13  C   UNL     1      92.209 118.113 118.376  1.00  0.00     0.087 A 
ATOM     14  C   UNL     1      95.340 115.971 115.798  1.00  0.00     0.009 A 
ATOM     15  C   UNL     1      93.535 114.971 117.119  1.00  0.00     0.027 A 
ATOM     16  C   UNL     1      94.629 114.850 116.250  1.00  0.00     0.003 A 
ATOM     17  H   UNL     1      91.506 116.154 118.806  1.00  0.00     0.166 HD
ENDROOT
BRANCH   7  18
ATOM     18  C   UNL     1      98.947 119.643 114.566  1.00  0.00     0.230 C 
ATOM     19  O   UNL     1      99.640 119.577 115.592  1.00  0.00    -0.274 OA
ATOM     20  N   UNL     1      99.529 119.466 113.312  1.00  0.00    -0.343 N 
BRANCH  20  21
ATOM     21  C   UNL     1     100.957 119.131 113.277  1.00  0.00     0.116 C 
ATOM     22  C   UNL     1     101.270 118.128 112.177  1.00  0.00     0.027 C 
ENDBRANCH  20  21
BRANCH  20  23
ATOM     23  C   UNL     1      98.855 119.560 112.012  1.00  0.00     0.116 C 
ATOM     24  C   UNL     1      98.963 120.952 111.405  1.00  0.00     0.027 C 
ENDBRANCH  20  23
ENDBRANCH   7  18
BRANCH   1  25
ATOM     25  C   UNL     1      94.924 121.626 115.058  1.00  0.00     0.085 C 
BRANCH  25  26
ATOM     26  C   UNL     1      95.543 122.770 114.236  1.00  0.00     0.012 C 
ATOM     27  C   UNL     1      95.704 122.431 112.760  1.00  0.00     0.005 C 
ENDBRANCH  25  26
ENDBRANCH   1  25
TORSDOF 5
ENDMDL
MODEL 19
REMARK VINA RESULT:    -6.546      7.984     11.291
REMARK INTER + INTRA:          -9.333
REMARK INTER:                  -8.554
REMARK INTRA:                  -0.779
REMARK UNBOUND:                -0.873
REMARK SMILES CCCN1C[C@H](C(=O)N(CC)CC)C=C2c3cccc4[nH]cc(c34)C[C@H]21
REMARK SMILES IDX 4 1 21 2 26 3 15 4 25 5 5 6 6 7 23 8 16 9 14 10 24 11 20 12
REMARK SMILES IDX 22 13 17 14 19 15 18 16 7 18 8 19 9 20 10 21 11 22 12 23
REMARK SMILES IDX 13 24 3 25 2 26 1 27
REMARK H PARENT 21 17
ROOT
ATOM      1  N   UNL     1      97.515 118.757 116.052  1.00  0.00    -0.295 NA
ATOM      2  N   UNL     1      96.504 112.845 115.299  1.00  0.00    -0.361 N 
ATOM      3  C   UNL     1      96.909 117.444 115.644  1.00  0.00     0.091 C 
ATOM      4  C   UNL     1      95.412 117.267 116.073  1.00  0.00    -0.026 C 
ATOM      5  C   UNL     1      97.852 116.219 115.941  1.00  0.00     0.061 C 
ATOM      6  C   UNL     1      96.574 119.845 115.705  1.00  0.00     0.102 C 
ATOM      7  C   UNL     1      95.207 119.731 116.405  1.00  0.00     0.116 C 
ATOM      8  C   UNL     1      97.157 114.934 115.662  1.00  0.00    -0.020 A 
ATOM      9  C   UNL     1      94.822 115.909 115.958  1.00  0.00    -0.011 A 
ATOM     10  C   UNL     1      94.666 118.326 116.451  1.00  0.00    -0.007 C 
ATOM     11  C   UNL     1      95.747 114.882 115.722  1.00  0.00     0.010 A 
ATOM     12  C   UNL     1      95.351 113.569 115.516  1.00  0.00     0.046 A 
ATOM     13  C   UNL     1      97.608 113.663 115.391  1.00  0.00     0.087 A 
ATOM     14  C   UNL     1      93.469 115.541 116.002  1.00  0.00     0.009 A 
ATOM     15  C   UNL     1      94.007 113.194 115.552  1.00  0.00     0.027 A 
ATOM     16  C   UNL     1      93.075 114.210 115.806  1.00  0.00     0.003 A 
ATOM     17  H   UNL     1      96.531 111.851 115.119  1.00  0.00     0.166 HD
ENDROOT
BRANCH   7  18
ATOM     18  C   UNL     1      94.227 120.778 115.844  1.00  0.00     0.230 C 
ATOM     19  O   UNL     1      93.471 120.422 114.928  1.00  0.00    -0.274 OA
ATOM     20  N   UNL     1      94.144 122.068 116.363  1.00  0.00    -0.343 N 
BRANCH  20  21
ATOM     21  C   UNL     1      93.089 122.938 115.831  1.00  0.00     0.116 C 
ATOM     22  C   UNL     1      93.476 124.407 115.921  1.00  0.00     0.027 C 
ENDBRANCH  20  21
BRANCH  20  23
ATOM     23  C   UNL     1      94.994 122.649 117.408  1.00  0.00     0.116 C 
ATOM     24  C   UNL     1      94.393 122.488 118.797  1.00  0.00     0.027 C 
ENDBRANCH  20  23
ENDBRANCH   7  18
BRANCH   1  25
ATOM     25  C   UNL     1      97.941 118.792 117.465  1.00  0.00     0.085 C 
BRANCH  25  26
ATOM     26  C   UNL     1      97.973 120.183 118.121  1.00  0.00     0.012 C 
ATOM     27  C   UNL     1      97.192 120.250 119.426  1.00  0.00     0.005 C 
ENDBRANCH  25  26
ENDBRANCH   1  25
TORSDOF 5
ENDMDL
