MODEL 1
REMARK VINA RESULT:    -9.558      0.000      0.000
REMARK INTER + INTRA:         -12.605
REMARK INTER:                 -12.351
REMARK INTRA:                  -0.253
REMARK UNBOUND:                -0.253
REMARK SMILES CCCN1C[C@H](C(=O)N(CC)CC)C=C2c3cccc4[nH]cc(c34)C[C@H]21
REMARK SMILES IDX 4 1 21 2 26 3 15 4 25 5 5 6 6 7 23 8 16 9 14 10 24 11 20 12
REMARK SMILES IDX 22 13 17 14 19 15 18 16 7 18 8 19 9 20 10 21 11 22 12 23
REMARK SMILES IDX 13 24 3 25 2 26 1 27
REMARK H PARENT 21 17
ROOT
ATOM      1  N   UNL     1     -25.618 -14.206 144.494  1.00  0.00    -0.295 NA
ATOM      2  N   UNL     1     -28.882 -16.178 149.184  1.00  0.00    -0.361 N 
ATOM      3  C   UNL     1     -26.763 -14.541 145.407  1.00  0.00     0.091 C 
ATOM      4  C   UNL     1     -27.684 -13.323 145.755  1.00  0.00    -0.026 C 
ATOM      5  C   UNL     1     -26.328 -15.436 146.627  1.00  0.00     0.061 C 
ATOM      6  C   UNL     1     -26.129 -13.395 143.366  1.00  0.00     0.102 C 
ATOM      7  C   UNL     1     -26.776 -12.066 143.800  1.00  0.00     0.116 C 
ATOM      8  C   UNL     1     -27.455 -15.619 147.580  1.00  0.00    -0.020 A 
ATOM      9  C   UNL     1     -28.665 -13.497 146.857  1.00  0.00    -0.011 A 
ATOM     10  C   UNL     1     -27.644 -12.188 145.025  1.00  0.00    -0.007 C 
ATOM     11  C   UNL     1     -28.479 -14.649 147.635  1.00  0.00     0.010 A 
ATOM     12  C   UNL     1     -29.354 -14.996 148.654  1.00  0.00     0.046 A 
ATOM     13  C   UNL     1     -27.725 -16.563 148.544  1.00  0.00     0.087 A 
ATOM     14  C   UNL     1     -29.768 -12.691 147.176  1.00  0.00     0.009 A 
ATOM     15  C   UNL     1     -30.458 -14.205 148.975  1.00  0.00     0.027 A 
ATOM     16  C   UNL     1     -30.642 -13.040 148.216  1.00  0.00     0.003 A 
ATOM     17  H   UNL     1     -29.316 -16.676 149.949  1.00  0.00     0.166 HD
ENDROOT
BRANCH   7  18
ATOM     18  C   UNL     1     -27.454 -11.381 142.599  1.00  0.00     0.230 C 
ATOM     19  O   UNL     1     -27.345 -11.927 141.492  1.00  0.00    -0.274 OA
ATOM     20  N   UNL     1     -28.206 -10.217 142.738  1.00  0.00    -0.343 N 
BRANCH  20  21
ATOM     21  C   UNL     1     -28.905  -9.724 141.547  1.00  0.00     0.116 C 
ATOM     22  C   UNL     1     -28.983  -8.205 141.531  1.00  0.00     0.027 C 
ENDBRANCH  20  21
BRANCH  20  23
ATOM     23  C   UNL     1     -28.390  -9.434 143.965  1.00  0.00     0.116 C 
ATOM     24  C   UNL     1     -29.747  -9.682 144.610  1.00  0.00     0.027 C 
ENDBRANCH  20  23
ENDBRANCH   7  18
BRANCH   1  25
ATOM     25  C   UNL     1     -24.479 -13.575 145.188  1.00  0.00     0.085 C 
BRANCH  25  26
ATOM     26  C   UNL     1     -23.252 -13.260 144.316  1.00  0.00     0.012 C 
ATOM     27  C   UNL     1     -22.576 -11.945 144.682  1.00  0.00     0.005 C 
ENDBRANCH  25  26
ENDBRANCH   1  25
TORSDOF 5
ENDMDL
MODEL 2
REMARK VINA RESULT:    -9.245      2.548      7.051
REMARK INTER + INTRA:         -12.200
REMARK INTER:                 -12.191
REMARK INTRA:                  -0.009
REMARK UNBOUND:                -0.253
REMARK SMILES CCCN1C[C@H](C(=O)N(CC)CC)C=C2c3cccc4[nH]cc(c34)C[C@H]21
REMARK SMILES IDX 4 1 21 2 26 3 15 4 25 5 5 6 6 7 23 8 16 9 14 10 24 11 20 12
REMARK SMILES IDX 22 13 17 14 19 15 18 16 7 18 8 19 9 20 10 21 11 22 12 23
REMARK SMILES IDX 13 24 3 25 2 26 1 27
REMARK H PARENT 21 17
ROOT
ATOM      1  N   UNL     1     -26.936 -11.982 146.038  1.00  0.00    -0.295 NA
ATOM      2  N   UNL     1     -28.545  -9.618 140.712  1.00  0.00    -0.361 N 
ATOM      3  C   UNL     1     -27.462 -11.816 144.641  1.00  0.00     0.091 C 
ATOM      4  C   UNL     1     -26.823 -12.792 143.594  1.00  0.00    -0.026 C 
ATOM      5  C   UNL     1     -27.552 -10.308 144.198  1.00  0.00     0.061 C 
ATOM      6  C   UNL     1     -26.919 -13.423 146.373  1.00  0.00     0.102 C 
ATOM      7  C   UNL     1     -26.027 -14.266 145.443  1.00  0.00     0.116 C 
ATOM      8  C   UNL     1     -27.933 -10.197 142.765  1.00  0.00    -0.020 A 
ATOM      9  C   UNL     1     -27.075 -12.517 142.157  1.00  0.00    -0.011 A 
ATOM     10  C   UNL     1     -26.140 -13.887 143.989  1.00  0.00    -0.007 C 
ATOM     11  C   UNL     1     -27.644 -11.264 141.887  1.00  0.00     0.010 A 
ATOM     12  C   UNL     1     -28.010 -10.884 140.604  1.00  0.00     0.046 A 
ATOM     13  C   UNL     1     -28.498  -9.188 142.020  1.00  0.00     0.087 A 
ATOM     14  C   UNL     1     -26.866 -13.365 141.059  1.00  0.00     0.009 A 
ATOM     15  C   UNL     1     -27.813 -11.723 139.506  1.00  0.00     0.027 A 
ATOM     16  C   UNL     1     -27.226 -12.970 139.762  1.00  0.00     0.003 A 
ATOM     17  H   UNL     1     -28.901  -9.078 139.936  1.00  0.00     0.166 HD
ENDROOT
BRANCH   7  18
ATOM     18  C   UNL     1     -26.218 -15.767 145.731  1.00  0.00     0.230 C 
ATOM     19  O   UNL     1     -27.079 -16.371 145.075  1.00  0.00    -0.274 OA
ATOM     20  N   UNL     1     -25.430 -16.450 146.655  1.00  0.00    -0.343 N 
BRANCH  20  21
ATOM     21  C   UNL     1     -25.620 -17.901 146.755  1.00  0.00     0.116 C 
ATOM     22  C   UNL     1     -24.421 -18.662 146.209  1.00  0.00     0.027 C 
ENDBRANCH  20  21
BRANCH  20  23
ATOM     23  C   UNL     1     -24.408 -15.870 147.533  1.00  0.00     0.116 C 
ATOM     24  C   UNL     1     -24.494 -16.408 148.954  1.00  0.00     0.027 C 
ENDBRANCH  20  23
ENDBRANCH   7  18
BRANCH   1  25
ATOM     25  C   UNL     1     -25.633 -11.324 146.257  1.00  0.00     0.085 C 
BRANCH  25  26
ATOM     26  C   UNL     1     -24.448 -12.261 146.544  1.00  0.00     0.012 C 
ATOM     27  C   UNL     1     -23.314 -12.122 145.537  1.00  0.00     0.005 C 
ENDBRANCH  25  26
ENDBRANCH   1  25
TORSDOF 5
ENDMDL
MODEL 3
REMARK VINA RESULT:    -9.236      1.690      2.383
REMARK INTER + INTRA:         -12.188
REMARK INTER:                 -12.288
REMARK INTRA:                   0.099
REMARK UNBOUND:                -0.253
REMARK SMILES CCCN1C[C@H](C(=O)N(CC)CC)C=C2c3cccc4[nH]cc(c34)C[C@H]21
REMARK SMILES IDX 4 1 21 2 26 3 15 4 25 5 5 6 6 7 23 8 16 9 14 10 24 11 20 12
REMARK SMILES IDX 22 13 17 14 19 15 18 16 7 18 8 19 9 20 10 21 11 22 12 23
REMARK SMILES IDX 13 24 3 25 2 26 1 27
REMARK H PARENT 21 17
ROOT
ATOM      1  N   UNL     1     -26.103 -12.286 144.356  1.00  0.00    -0.295 NA
ATOM      2  N   UNL     1     -26.367 -17.348 147.650  1.00  0.00    -0.361 N 
ATOM      3  C   UNL     1     -26.604 -13.497 145.090  1.00  0.00     0.091 C 
ATOM      4  C   UNL     1     -27.713 -13.189 146.154  1.00  0.00    -0.026 C 
ATOM      5  C   UNL     1     -25.441 -14.442 145.573  1.00  0.00     0.061 C 
ATOM      6  C   UNL     1     -27.264 -11.481 143.915  1.00  0.00     0.102 C 
ATOM      7  C   UNL     1     -28.149 -10.983 145.073  1.00  0.00     0.116 C 
ATOM      8  C   UNL     1     -25.969 -15.544 146.421  1.00  0.00    -0.020 A 
ATOM      9  C   UNL     1     -28.065 -14.270 147.110  1.00  0.00    -0.011 A 
ATOM     10  C   UNL     1     -28.380 -12.016 146.145  1.00  0.00    -0.007 C 
ATOM     11  C   UNL     1     -27.182 -15.360 147.119  1.00  0.00     0.010 A 
ATOM     12  C   UNL     1     -27.410 -16.483 147.900  1.00  0.00     0.046 A 
ATOM     13  C   UNL     1     -25.482 -16.785 146.756  1.00  0.00     0.087 A 
ATOM     14  C   UNL     1     -29.183 -14.357 147.952  1.00  0.00     0.009 A 
ATOM     15  C   UNL     1     -28.523 -16.581 148.737  1.00  0.00     0.027 A 
ATOM     16  C   UNL     1     -29.402 -15.489 148.749  1.00  0.00     0.003 A 
ATOM     17  H   UNL     1     -26.259 -18.257 148.079  1.00  0.00     0.166 HD
ENDROOT
BRANCH   7  18
ATOM     18  C   UNL     1     -29.432 -10.330 144.525  1.00  0.00     0.230 C 
ATOM     19  O   UNL     1     -30.460 -10.423 145.211  1.00  0.00    -0.274 OA
ATOM     20  N   UNL     1     -29.446  -9.615 143.329  1.00  0.00    -0.343 N 
BRANCH  20  21
ATOM     21  C   UNL     1     -30.695  -8.934 142.971  1.00  0.00     0.116 C 
ATOM     22  C   UNL     1     -30.604  -7.434 143.212  1.00  0.00     0.027 C 
ENDBRANCH  20  21
BRANCH  20  23
ATOM     23  C   UNL     1     -28.330  -9.454 142.391  1.00  0.00     0.116 C 
ATOM     24  C   UNL     1     -28.712  -9.836 140.968  1.00  0.00     0.027 C 
ENDBRANCH  20  23
ENDBRANCH   7  18
BRANCH   1  25
ATOM     25  C   UNL     1     -25.116 -11.502 145.123  1.00  0.00     0.085 C 
BRANCH  25  26
ATOM     26  C   UNL     1     -23.785 -11.214 144.407  1.00  0.00     0.012 C 
ATOM     27  C   UNL     1     -22.671 -12.174 144.800  1.00  0.00     0.005 C 
ENDBRANCH  25  26
ENDBRANCH   1  25
TORSDOF 5
ENDMDL
MODEL 4
REMARK VINA RESULT:    -9.088      2.975      7.237
REMARK INTER + INTRA:         -11.998
REMARK INTER:                 -11.365
REMARK INTRA:                  -0.633
REMARK UNBOUND:                -0.253
REMARK SMILES CCCN1C[C@H](C(=O)N(CC)CC)C=C2c3cccc4[nH]cc(c34)C[C@H]21
REMARK SMILES IDX 4 1 21 2 26 3 15 4 25 5 5 6 6 7 23 8 16 9 14 10 24 11 20 12
REMARK SMILES IDX 22 13 17 14 19 15 18 16 7 18 8 19 9 20 10 21 11 22 12 23
REMARK SMILES IDX 13 24 3 25 2 26 1 27
REMARK H PARENT 21 17
ROOT
ATOM      1  N   UNL     1     -28.588 -15.816 147.581  1.00  0.00    -0.295 NA
ATOM      2  N   UNL     1     -28.433 -10.537 144.640  1.00  0.00    -0.361 N 
ATOM      3  C   UNL     1     -28.179 -14.685 146.680  1.00  0.00     0.091 C 
ATOM      4  C   UNL     1     -26.717 -14.173 146.916  1.00  0.00    -0.026 C 
ATOM      5  C   UNL     1     -29.282 -13.568 146.565  1.00  0.00     0.061 C 
ATOM      6  C   UNL     1     -27.506 -16.826 147.599  1.00  0.00     0.102 C 
ATOM      7  C   UNL     1     -26.161 -16.287 148.119  1.00  0.00     0.116 C 
ATOM      8  C   UNL     1     -28.780 -12.404 145.788  1.00  0.00    -0.020 A 
ATOM      9  C   UNL     1     -26.327 -12.893 146.272  1.00  0.00    -0.011 A 
ATOM     10  C   UNL     1     -25.824 -14.909 147.609  1.00  0.00    -0.007 C 
ATOM     11  C   UNL     1     -27.391 -12.155 145.734  1.00  0.00     0.010 A 
ATOM     12  C   UNL     1     -27.187 -10.975 145.034  1.00  0.00     0.046 A 
ATOM     13  C   UNL     1     -29.409 -11.394 145.098  1.00  0.00     0.087 A 
ATOM     14  C   UNL     1     -25.039 -12.367 146.090  1.00  0.00     0.009 A 
ATOM     15  C   UNL     1     -25.909 -10.447 144.842  1.00  0.00     0.027 A 
ATOM     16  C   UNL     1     -24.840 -11.167 145.392  1.00  0.00     0.003 A 
ATOM     17  H   UNL     1     -28.603  -9.694 144.109  1.00  0.00     0.166 HD
ENDROOT
BRANCH   7  18
ATOM     18  C   UNL     1     -25.049 -17.334 147.921  1.00  0.00     0.230 C 
ATOM     19  O   UNL     1     -24.623 -17.915 148.929  1.00  0.00    -0.274 OA
ATOM     20  N   UNL     1     -24.561 -17.665 146.658  1.00  0.00    -0.343 N 
BRANCH  20  21
ATOM     21  C   UNL     1     -23.591 -18.763 146.582  1.00  0.00     0.116 C 
ATOM     22  C   UNL     1     -24.168 -19.970 145.858  1.00  0.00     0.027 C 
ENDBRANCH  20  21
BRANCH  20  23
ATOM     23  C   UNL     1     -24.930 -17.040 145.384  1.00  0.00     0.116 C 
ATOM     24  C   UNL     1     -23.770 -16.281 144.756  1.00  0.00     0.027 C 
ENDBRANCH  20  23
ENDBRANCH   7  18
BRANCH   1  25
ATOM     25  C   UNL     1     -28.987 -15.375 148.932  1.00  0.00     0.085 C 
BRANCH  25  26
ATOM     26  C   UNL     1     -29.474 -16.481 149.883  1.00  0.00     0.012 C 
ATOM     27  C   UNL     1     -30.573 -16.018 150.830  1.00  0.00     0.005 C 
ENDBRANCH  25  26
ENDBRANCH   1  25
TORSDOF 5
ENDMDL
MODEL 5
REMARK VINA RESULT:    -9.083      2.855      5.954
REMARK INTER + INTRA:         -11.991
REMARK INTER:                 -12.017
REMARK INTRA:                   0.025
REMARK UNBOUND:                -0.253
REMARK SMILES CCCN1C[C@H](C(=O)N(CC)CC)C=C2c3cccc4[nH]cc(c34)C[C@H]21
REMARK SMILES IDX 4 1 21 2 26 3 15 4 25 5 5 6 6 7 23 8 16 9 14 10 24 11 20 12
REMARK SMILES IDX 22 13 17 14 19 15 18 16 7 18 8 19 9 20 10 21 11 22 12 23
REMARK SMILES IDX 13 24 3 25 2 26 1 27
REMARK H PARENT 21 17
ROOT
ATOM      1  N   UNL     1     -25.777 -13.666 144.751  1.00  0.00    -0.295 NA
ATOM      2  N   UNL     1     -30.676 -11.625 147.645  1.00  0.00    -0.361 N 
ATOM      3  C   UNL     1     -26.801 -13.373 145.810  1.00  0.00     0.091 C 
ATOM      4  C   UNL     1     -27.364 -14.647 146.529  1.00  0.00    -0.026 C 
ATOM      5  C   UNL     1     -27.877 -12.323 145.345  1.00  0.00     0.061 C 
ATOM      6  C   UNL     1     -24.796 -14.633 145.291  1.00  0.00     0.102 C 
ATOM      7  C   UNL     1     -25.417 -15.977 145.716  1.00  0.00     0.116 C 
ATOM      8  C   UNL     1     -28.951 -12.175 146.363  1.00  0.00    -0.020 A 
ATOM      9  C   UNL     1     -28.566 -14.477 147.384  1.00  0.00    -0.011 A 
ATOM     10  C   UNL     1     -26.730 -15.835 146.440  1.00  0.00    -0.007 C 
ATOM     11  C   UNL     1     -29.217 -13.242 147.249  1.00  0.00     0.010 A 
ATOM     12  C   UNL     1     -30.310 -12.897 148.030  1.00  0.00     0.046 A 
ATOM     13  C   UNL     1     -29.861 -11.178 146.628  1.00  0.00     0.087 A 
ATOM     14  C   UNL     1     -29.090 -15.364 148.336  1.00  0.00     0.009 A 
ATOM     15  C   UNL     1     -30.835 -13.770 148.983  1.00  0.00     0.027 A 
ATOM     16  C   UNL     1     -30.203 -15.016 149.114  1.00  0.00     0.003 A 
ATOM     17  H   UNL     1     -31.447 -11.106 148.041  1.00  0.00     0.166 HD
ENDROOT
BRANCH   7  18
ATOM     18  C   UNL     1     -24.373 -16.845 146.444  1.00  0.00     0.230 C 
ATOM     19  O   UNL     1     -23.601 -17.519 145.747  1.00  0.00    -0.274 OA
ATOM     20  N   UNL     1     -24.254 -16.850 147.832  1.00  0.00    -0.343 N 
BRANCH  20  21
ATOM     21  C   UNL     1     -23.145 -17.620 148.407  1.00  0.00     0.116 C 
ATOM     22  C   UNL     1     -22.581 -16.947 149.649  1.00  0.00     0.027 C 
ENDBRANCH  20  21
BRANCH  20  23
ATOM     23  C   UNL     1     -25.115 -16.146 148.788  1.00  0.00     0.116 C 
ATOM     24  C   UNL     1     -25.966 -17.102 149.612  1.00  0.00     0.027 C 
ENDBRANCH  20  23
ENDBRANCH   7  18
BRANCH   1  25
ATOM     25  C   UNL     1     -26.367 -14.099 143.469  1.00  0.00     0.085 C 
BRANCH  25  26
ATOM     26  C   UNL     1     -26.381 -13.046 142.348  1.00  0.00     0.012 C 
ATOM     27  C   UNL     1     -26.766 -13.619 140.991  1.00  0.00     0.005 C 
ENDBRANCH  25  26
ENDBRANCH   1  25
TORSDOF 5
ENDMDL
MODEL 6
REMARK VINA RESULT:    -8.957      1.719      2.526
REMARK INTER + INTRA:         -11.828
REMARK INTER:                 -11.191
REMARK INTRA:                  -0.637
REMARK UNBOUND:                -0.253
REMARK SMILES CCCN1C[C@H](C(=O)N(CC)CC)C=C2c3cccc4[nH]cc(c34)C[C@H]21
REMARK SMILES IDX 4 1 21 2 26 3 15 4 25 5 5 6 6 7 23 8 16 9 14 10 24 11 20 12
REMARK SMILES IDX 22 13 17 14 19 15 18 16 7 18 8 19 9 20 10 21 11 22 12 23
REMARK SMILES IDX 13 24 3 25 2 26 1 27
REMARK H PARENT 21 17
ROOT
ATOM      1  N   UNL     1     -27.158 -14.503 146.284  1.00  0.00    -0.295 NA
ATOM      2  N   UNL     1     -30.468 -16.833 150.773  1.00  0.00    -0.361 N 
ATOM      3  C   UNL     1     -28.308 -14.881 147.173  1.00  0.00     0.091 C 
ATOM      4  C   UNL     1     -29.157 -13.664 147.677  1.00  0.00    -0.026 C 
ATOM      5  C   UNL     1     -27.908 -15.934 148.273  1.00  0.00     0.061 C 
ATOM      6  C   UNL     1     -27.637 -13.539 145.268  1.00  0.00     0.102 C 
ATOM      7  C   UNL     1     -28.204 -12.238 145.865  1.00  0.00     0.116 C 
ATOM      8  C   UNL     1     -29.032 -16.167 149.219  1.00  0.00    -0.020 A 
ATOM      9  C   UNL     1     -30.132 -13.914 148.769  1.00  0.00    -0.011 A 
ATOM     10  C   UNL     1     -29.063 -12.456 147.083  1.00  0.00    -0.007 C 
ATOM     11  C   UNL     1     -30.001 -15.157 149.404  1.00  0.00     0.010 A 
ATOM     12  C   UNL     1     -30.881 -15.574 150.392  1.00  0.00     0.046 A 
ATOM     13  C   UNL     1     -29.342 -17.201 150.071  1.00  0.00     0.087 A 
ATOM     14  C   UNL     1     -31.186 -13.093 149.199  1.00  0.00     0.009 A 
ATOM     15  C   UNL     1     -31.936 -14.768 150.823  1.00  0.00     0.027 A 
ATOM     16  C   UNL     1     -32.064 -13.515 150.208  1.00  0.00     0.003 A 
ATOM     17  H   UNL     1     -30.920 -17.394 151.482  1.00  0.00     0.166 HD
ENDROOT
BRANCH   7  18
ATOM     18  C   UNL     1     -28.858 -11.382 144.764  1.00  0.00     0.230 C 
ATOM     19  O   UNL     1     -30.076 -11.169 144.851  1.00  0.00    -0.274 OA
ATOM     20  N   UNL     1     -28.117 -10.819 143.727  1.00  0.00    -0.343 N 
BRANCH  20  21
ATOM     21  C   UNL     1     -28.826  -9.923 142.807  1.00  0.00     0.116 C 
ATOM     22  C   UNL     1     -28.681 -10.374 141.362  1.00  0.00     0.027 C 
ENDBRANCH  20  21
BRANCH  20  23
ATOM     23  C   UNL     1     -26.687 -11.014 143.465  1.00  0.00     0.116 C 
ATOM     24  C   UNL     1     -25.814 -10.104 144.317  1.00  0.00     0.027 C 
ENDBRANCH  20  23
ENDBRANCH   7  18
BRANCH   1  25
ATOM     25  C   UNL     1     -25.978 -14.018 147.026  1.00  0.00     0.085 C 
BRANCH  25  26
ATOM     26  C   UNL     1     -24.721 -13.744 146.183  1.00  0.00     0.012 C 
ATOM     27  C   UNL     1     -24.092 -12.386 146.466  1.00  0.00     0.005 C 
ENDBRANCH  25  26
ENDBRANCH   1  25
TORSDOF 5
ENDMDL
MODEL 7
REMARK VINA RESULT:    -8.956      2.550      5.774
REMARK INTER + INTRA:         -11.827
REMARK INTER:                 -12.177
REMARK INTRA:                   0.350
REMARK UNBOUND:                -0.253
REMARK SMILES CCCN1C[C@H](C(=O)N(CC)CC)C=C2c3cccc4[nH]cc(c34)C[C@H]21
REMARK SMILES IDX 4 1 21 2 26 3 15 4 25 5 5 6 6 7 23 8 16 9 14 10 24 11 20 12
REMARK SMILES IDX 22 13 17 14 19 15 18 16 7 18 8 19 9 20 10 21 11 22 12 23
REMARK SMILES IDX 13 24 3 25 2 26 1 27
REMARK H PARENT 21 17
ROOT
ATOM      1  N   UNL     1     -25.856 -13.067 143.718  1.00  0.00    -0.295 NA
ATOM      2  N   UNL     1     -30.385 -11.316 147.317  1.00  0.00    -0.361 N 
ATOM      3  C   UNL     1     -26.748 -12.869 144.909  1.00  0.00     0.091 C 
ATOM      4  C   UNL     1     -27.217 -14.201 145.589  1.00  0.00    -0.026 C 
ATOM      5  C   UNL     1     -27.876 -11.800 144.656  1.00  0.00     0.061 C 
ATOM      6  C   UNL     1     -24.814 -14.060 144.062  1.00  0.00     0.102 C 
ATOM      7  C   UNL     1     -25.375 -15.440 144.451  1.00  0.00     0.116 C 
ATOM      8  C   UNL     1     -28.822 -11.744 145.802  1.00  0.00    -0.020 A 
ATOM      9  C   UNL     1     -28.311 -14.112 146.590  1.00  0.00    -0.011 A 
ATOM     10  C   UNL     1     -26.594 -15.371 145.334  1.00  0.00    -0.007 C 
ATOM     11  C   UNL     1     -28.977 -12.879 146.628  1.00  0.00     0.010 A 
ATOM     12  C   UNL     1     -29.971 -12.609 147.557  1.00  0.00     0.046 A 
ATOM     13  C   UNL     1     -29.698 -10.783 146.249  1.00  0.00     0.087 A 
ATOM     14  C   UNL     1     -28.715 -15.077 147.525  1.00  0.00     0.009 A 
ATOM     15  C   UNL     1     -30.376 -13.559 148.495  1.00  0.00     0.027 A 
ATOM     16  C   UNL     1     -29.729 -14.802 148.454  1.00  0.00     0.003 A 
ATOM     17  H   UNL     1     -31.106 -10.839 147.840  1.00  0.00     0.166 HD
ENDROOT
BRANCH   7  18
ATOM     18  C   UNL     1     -24.250 -16.348 144.982  1.00  0.00     0.230 C 
ATOM     19  O   UNL     1     -23.222 -16.447 144.297  1.00  0.00    -0.274 OA
ATOM     20  N   UNL     1     -24.344 -17.004 146.208  1.00  0.00    -0.343 N 
BRANCH  20  21
ATOM     21  C   UNL     1     -23.161 -17.741 146.666  1.00  0.00     0.116 C 
ATOM     22  C   UNL     1     -23.341 -19.243 146.507  1.00  0.00     0.027 C 
ENDBRANCH  20  21
BRANCH  20  23
ATOM     23  C   UNL     1     -25.504 -17.020 147.106  1.00  0.00     0.116 C 
ATOM     24  C   UNL     1     -25.156 -16.539 148.508  1.00  0.00     0.027 C 
ENDBRANCH  20  23
ENDBRANCH   7  18
BRANCH   1  25
ATOM     25  C   UNL     1     -26.591 -13.408 142.484  1.00  0.00     0.085 C 
BRANCH  25  26
ATOM     26  C   UNL     1     -27.047 -12.218 141.624  1.00  0.00     0.012 C 
ATOM     27  C   UNL     1     -27.352 -12.601 140.182  1.00  0.00     0.005 C 
ENDBRANCH  25  26
ENDBRANCH   1  25
TORSDOF 5
ENDMDL
MODEL 8
REMARK VINA RESULT:    -8.914      2.362      4.868
REMARK INTER + INTRA:         -11.773
REMARK INTER:                 -10.938
REMARK INTRA:                  -0.835
REMARK UNBOUND:                -0.253
REMARK SMILES CCCN1C[C@H](C(=O)N(CC)CC)C=C2c3cccc4[nH]cc(c34)C[C@H]21
REMARK SMILES IDX 4 1 21 2 26 3 15 4 25 5 5 6 6 7 23 8 16 9 14 10 24 11 20 12
REMARK SMILES IDX 22 13 17 14 19 15 18 16 7 18 8 19 9 20 10 21 11 22 12 23
REMARK SMILES IDX 13 24 3 25 2 26 1 27
REMARK H PARENT 21 17
ROOT
ATOM      1  N   UNL     1     -27.407 -16.853 148.645  1.00  0.00    -0.295 NA
ATOM      2  N   UNL     1     -32.591 -15.033 151.166  1.00  0.00    -0.361 N 
ATOM      3  C   UNL     1     -28.777 -16.271 148.852  1.00  0.00     0.091 C 
ATOM      4  C   UNL     1     -28.926 -14.790 148.364  1.00  0.00    -0.026 C 
ATOM      5  C   UNL     1     -29.360 -16.579 150.281  1.00  0.00     0.061 C 
ATOM      6  C   UNL     1     -26.960 -16.541 147.269  1.00  0.00     0.102 C 
ATOM      7  C   UNL     1     -26.869 -15.032 146.972  1.00  0.00     0.116 C 
ATOM      8  C   UNL     1     -30.646 -15.863 150.496  1.00  0.00    -0.020 A 
ATOM      9  C   UNL     1     -30.147 -14.051 148.776  1.00  0.00    -0.011 A 
ATOM     10  C   UNL     1     -28.019 -14.235 147.532  1.00  0.00    -0.007 C 
ATOM     11  C   UNL     1     -30.909 -14.680 149.771  1.00  0.00     0.010 A 
ATOM     12  C   UNL     1     -32.116 -14.159 150.212  1.00  0.00     0.046 A 
ATOM     13  C   UNL     1     -31.703 -16.070 151.351  1.00  0.00     0.087 A 
ATOM     14  C   UNL     1     -30.651 -12.848 148.261  1.00  0.00     0.009 A 
ATOM     15  C   UNL     1     -32.630 -12.966 149.702  1.00  0.00     0.027 A 
ATOM     16  C   UNL     1     -31.866 -12.318 148.720  1.00  0.00     0.003 A 
ATOM     17  H   UNL     1     -33.459 -14.915 151.670  1.00  0.00     0.166 HD
ENDROOT
BRANCH   7  18
ATOM     18  C   UNL     1     -26.592 -14.794 145.476  1.00  0.00     0.230 C 
ATOM     19  O   UNL     1     -27.070 -15.605 144.669  1.00  0.00    -0.274 OA
ATOM     20  N   UNL     1     -25.876 -13.689 145.022  1.00  0.00    -0.343 N 
BRANCH  20  21
ATOM     21  C   UNL     1     -25.781 -13.502 143.571  1.00  0.00     0.116 C 
ATOM     22  C   UNL     1     -26.680 -12.372 143.092  1.00  0.00     0.027 C 
ENDBRANCH  20  21
BRANCH  20  23
ATOM     23  C   UNL     1     -25.216 -12.673 145.849  1.00  0.00     0.116 C 
ATOM     24  C   UNL     1     -23.739 -12.523 145.512  1.00  0.00     0.027 C 
ENDBRANCH  20  23
ENDBRANCH   7  18
BRANCH   1  25
ATOM     25  C   UNL     1     -26.433 -16.441 149.674  1.00  0.00     0.085 C 
BRANCH  25  26
ATOM     26  C   UNL     1     -25.566 -17.566 150.266  1.00  0.00     0.012 C 
ATOM     27  C   UNL     1     -26.254 -18.327 151.391  1.00  0.00     0.005 C 
ENDBRANCH  25  26
ENDBRANCH   1  25
TORSDOF 5
ENDMDL
MODEL 9
REMARK VINA RESULT:    -8.862      2.519      7.285
REMARK INTER + INTRA:         -11.706
REMARK INTER:                 -10.992
REMARK INTRA:                  -0.714
REMARK UNBOUND:                -0.253
REMARK SMILES CCCN1C[C@H](C(=O)N(CC)CC)C=C2c3cccc4[nH]cc(c34)C[C@H]21
REMARK SMILES IDX 4 1 21 2 26 3 15 4 25 5 5 6 6 7 23 8 16 9 14 10 24 11 20 12
REMARK SMILES IDX 22 13 17 14 19 15 18 16 7 18 8 19 9 20 10 21 11 22 12 23
REMARK SMILES IDX 13 24 3 25 2 26 1 27
REMARK H PARENT 21 17
ROOT
ATOM      1  N   UNL     1     -29.437 -14.738 147.097  1.00  0.00    -0.295 NA
ATOM      2  N   UNL     1     -28.378  -9.468 144.332  1.00  0.00    -0.361 N 
ATOM      3  C   UNL     1     -28.870 -13.676 146.198  1.00  0.00     0.091 C 
ATOM      4  C   UNL     1     -27.316 -13.510 146.301  1.00  0.00    -0.026 C 
ATOM      5  C   UNL     1     -29.702 -12.340 146.231  1.00  0.00     0.061 C 
ATOM      6  C   UNL     1     -28.611 -15.959 146.973  1.00  0.00     0.102 C 
ATOM      7  C   UNL     1     -27.138 -15.756 147.371  1.00  0.00     0.116 C 
ATOM      8  C   UNL     1     -29.026 -11.274 145.446  1.00  0.00    -0.020 A 
ATOM      9  C   UNL     1     -26.710 -12.313 145.663  1.00  0.00    -0.011 A 
ATOM     10  C   UNL     1     -26.550 -14.461 146.876  1.00  0.00    -0.007 C 
ATOM     11  C   UNL     1     -27.628 -11.332 145.260  1.00  0.00     0.010 A 
ATOM     12  C   UNL     1     -27.230 -10.189 144.582  1.00  0.00     0.046 A 
ATOM     13  C   UNL     1     -29.475 -10.115 144.857  1.00  0.00     0.087 A 
ATOM     14  C   UNL     1     -25.360 -12.072 145.370  1.00  0.00     0.009 A 
ATOM     15  C   UNL     1     -25.890  -9.943 144.280  1.00  0.00     0.027 A 
ATOM     16  C   UNL     1     -24.962 -10.909 144.696  1.00  0.00     0.003 A 
ATOM     17  H   UNL     1     -28.404  -8.581 143.848  1.00  0.00     0.166 HD
ENDROOT
BRANCH   7  18
ATOM     18  C   UNL     1     -26.310 -17.009 147.027  1.00  0.00     0.230 C 
ATOM     19  O   UNL     1     -26.634 -17.649 146.016  1.00  0.00    -0.274 OA
ATOM     20  N   UNL     1     -25.207 -17.398 147.784  1.00  0.00    -0.343 N 
BRANCH  20  21
ATOM     21  C   UNL     1     -24.423 -18.536 147.289  1.00  0.00     0.116 C 
ATOM     22  C   UNL     1     -23.093 -18.087 146.703  1.00  0.00     0.027 C 
ENDBRANCH  20  21
BRANCH  20  23
ATOM     23  C   UNL     1     -24.729 -16.774 149.022  1.00  0.00     0.116 C 
ATOM     24  C   UNL     1     -25.306 -17.440 150.264  1.00  0.00     0.027 C 
ENDBRANCH  20  23
ENDBRANCH   7  18
BRANCH   1  25
ATOM     25  C   UNL     1     -29.602 -14.294 148.495  1.00  0.00     0.085 C 
BRANCH  25  26
ATOM     26  C   UNL     1     -29.815 -15.410 149.533  1.00  0.00     0.012 C 
ATOM     27  C   UNL     1     -31.011 -15.165 150.442  1.00  0.00     0.005 C 
ENDBRANCH  25  26
ENDBRANCH   1  25
TORSDOF 5
ENDMDL
MODEL 10
REMARK VINA RESULT:    -8.792      2.115      4.870
REMARK INTER + INTRA:         -11.615
REMARK INTER:                 -10.802
REMARK INTRA:                  -0.813
REMARK UNBOUND:                -0.253
REMARK SMILES CCCN1C[C@H](C(=O)N(CC)CC)C=C2c3cccc4[nH]cc(c34)C[C@H]21
REMARK SMILES IDX 4 1 21 2 26 3 15 4 25 5 5 6 6 7 23 8 16 9 14 10 24 11 20 12
REMARK SMILES IDX 22 13 17 14 19 15 18 16 7 18 8 19 9 20 10 21 11 22 12 23
REMARK SMILES IDX 13 24 3 25 2 26 1 27
REMARK H PARENT 21 17
ROOT
ATOM      1  N   UNL     1     -28.903 -11.593 146.810  1.00  0.00    -0.295 NA
ATOM      2  N   UNL     1     -32.097 -14.672 150.915  1.00  0.00    -0.361 N 
ATOM      3  C   UNL     1     -29.292 -12.517 147.928  1.00  0.00     0.091 C 
ATOM      4  C   UNL     1     -28.818 -13.998 147.731  1.00  0.00    -0.026 C 
ATOM      5  C   UNL     1     -30.789 -12.336 148.376  1.00  0.00     0.061 C 
ATOM      6  C   UNL     1     -27.476 -11.814 146.482  1.00  0.00     0.102 C 
ATOM      7  C   UNL     1     -27.160 -13.250 146.024  1.00  0.00     0.116 C 
ATOM      8  C   UNL     1     -31.173 -13.367 149.377  1.00  0.00    -0.020 A 
ATOM      9  C   UNL     1     -29.388 -15.027 148.638  1.00  0.00    -0.011 A 
ATOM     10  C   UNL     1     -27.866 -14.311 146.826  1.00  0.00    -0.007 C 
ATOM     11  C   UNL     1     -30.482 -14.598 149.403  1.00  0.00     0.010 A 
ATOM     12  C   UNL     1     -31.081 -15.414 150.351  1.00  0.00     0.046 A 
ATOM     13  C   UNL     1     -32.166 -13.429 150.327  1.00  0.00     0.087 A 
ATOM     14  C   UNL     1     -28.938 -16.337 148.859  1.00  0.00     0.009 A 
ATOM     15  C   UNL     1     -30.637 -16.716 150.583  1.00  0.00     0.027 A 
ATOM     16  C   UNL     1     -29.555 -17.162 149.810  1.00  0.00     0.003 A 
ATOM     17  H   UNL     1     -32.714 -15.006 151.643  1.00  0.00     0.166 HD
ENDROOT
BRANCH   7  18
ATOM     18  C   UNL     1     -25.638 -13.449 145.895  1.00  0.00     0.230 C 
ATOM     19  O   UNL     1     -25.045 -13.965 146.853  1.00  0.00    -0.274 OA
ATOM     20  N   UNL     1     -24.943 -13.113 144.735  1.00  0.00    -0.343 N 
BRANCH  20  21
ATOM     21  C   UNL     1     -23.519 -13.462 144.683  1.00  0.00     0.116 C 
ATOM     22  C   UNL     1     -22.639 -12.222 144.654  1.00  0.00     0.027 C 
ENDBRANCH  20  21
BRANCH  20  23
ATOM     23  C   UNL     1     -25.492 -12.460 143.543  1.00  0.00     0.116 C 
ATOM     24  C   UNL     1     -26.229 -13.436 142.637  1.00  0.00     0.027 C 
ENDBRANCH  20  23
ENDBRANCH   7  18
BRANCH   1  25
ATOM     25  C   UNL     1     -29.786 -11.693 145.632  1.00  0.00     0.085 C 
BRANCH  25  26
ATOM     26  C   UNL     1     -29.821 -10.461 144.711  1.00  0.00     0.012 C 
ATOM     27  C   UNL     1     -28.995 -10.634 143.444  1.00  0.00     0.005 C 
ENDBRANCH  25  26
ENDBRANCH   1  25
TORSDOF 5
ENDMDL
MODEL 11
REMARK VINA RESULT:    -8.791      1.783      2.563
REMARK INTER + INTRA:         -11.614
REMARK INTER:                 -11.337
REMARK INTRA:                  -0.277
REMARK UNBOUND:                -0.253
REMARK SMILES CCCN1C[C@H](C(=O)N(CC)CC)C=C2c3cccc4[nH]cc(c34)C[C@H]21
REMARK SMILES IDX 4 1 21 2 26 3 15 4 25 5 5 6 6 7 23 8 16 9 14 10 24 11 20 12
REMARK SMILES IDX 22 13 17 14 19 15 18 16 7 18 8 19 9 20 10 21 11 22 12 23
REMARK SMILES IDX 13 24 3 25 2 26 1 27
REMARK H PARENT 21 17
ROOT
ATOM      1  N   UNL     1     -26.274 -15.833 146.427  1.00  0.00    -0.295 NA
ATOM      2  N   UNL     1     -30.807 -15.928 150.425  1.00  0.00    -0.361 N 
ATOM      3  C   UNL     1     -27.616 -15.665 147.080  1.00  0.00     0.091 C 
ATOM      4  C   UNL     1     -28.165 -14.198 147.053  1.00  0.00    -0.026 C 
ATOM      5  C   UNL     1     -27.716 -16.404 148.467  1.00  0.00     0.061 C 
ATOM      6  C   UNL     1     -26.288 -15.136 145.122  1.00  0.00     0.102 C 
ATOM      7  C   UNL     1     -26.563 -13.624 145.228  1.00  0.00     0.116 C 
ATOM      8  C   UNL     1     -29.002 -16.090 149.145  1.00  0.00    -0.020 A 
ATOM      9  C   UNL     1     -29.340 -13.889 147.907  1.00  0.00    -0.011 A 
ATOM     10  C   UNL     1     -27.640 -13.273 146.221  1.00  0.00    -0.007 C 
ATOM     11  C   UNL     1     -29.669 -14.883 148.840  1.00  0.00     0.010 A 
ATOM     12  C   UNL     1     -30.782 -14.781 149.660  1.00  0.00     0.046 A 
ATOM     13  C   UNL     1     -29.726 -16.728 150.125  1.00  0.00     0.087 A 
ATOM     14  C   UNL     1     -30.180 -12.767 147.859  1.00  0.00     0.009 A 
ATOM     15  C   UNL     1     -31.628 -13.672 149.615  1.00  0.00     0.027 A 
ATOM     16  C   UNL     1     -31.297 -12.663 148.699  1.00  0.00     0.003 A 
ATOM     17  H   UNL     1     -31.508 -16.138 151.121  1.00  0.00     0.166 HD
ENDROOT
BRANCH   7  18
ATOM     18  C   UNL     1     -26.758 -13.014 143.828  1.00  0.00     0.230 C 
ATOM     19  O   UNL     1     -26.494 -13.727 142.849  1.00  0.00    -0.274 OA
ATOM     20  N   UNL     1     -27.257 -11.726 143.644  1.00  0.00    -0.343 N 
BRANCH  20  21
ATOM     21  C   UNL     1     -27.516 -11.297 142.266  1.00  0.00     0.116 C 
ATOM     22  C   UNL     1     -28.759 -10.426 142.174  1.00  0.00     0.027 C 
ENDBRANCH  20  21
BRANCH  20  23
ATOM     23  C   UNL     1     -27.573 -10.751 144.694  1.00  0.00     0.116 C 
ATOM     24  C   UNL     1     -26.375  -9.882 145.054  1.00  0.00     0.027 C 
ENDBRANCH  20  23
ENDBRANCH   7  18
BRANCH   1  25
ATOM     25  C   UNL     1     -25.148 -15.422 147.287  1.00  0.00     0.085 C 
BRANCH  25  26
ATOM     26  C   UNL     1     -24.219 -16.552 147.764  1.00  0.00     0.012 C 
ATOM     27  C   UNL     1     -23.920 -17.581 146.683  1.00  0.00     0.005 C 
ENDBRANCH  25  26
ENDBRANCH   1  25
TORSDOF 5
ENDMDL
MODEL 12
REMARK VINA RESULT:    -8.753      4.180      6.856
REMARK INTER + INTRA:         -11.564
REMARK INTER:                 -10.640
REMARK INTRA:                  -0.924
REMARK UNBOUND:                -0.253
REMARK SMILES CCCN1C[C@H](C(=O)N(CC)CC)C=C2c3cccc4[nH]cc(c34)C[C@H]21
REMARK SMILES IDX 4 1 21 2 26 3 15 4 25 5 5 6 6 7 23 8 16 9 14 10 24 11 20 12
REMARK SMILES IDX 22 13 17 14 19 15 18 16 7 18 8 19 9 20 10 21 11 22 12 23
REMARK SMILES IDX 13 24 3 25 2 26 1 27
REMARK H PARENT 21 17
ROOT
ATOM      1  N   UNL     1     -29.405 -17.453 150.259  1.00  0.00    -0.295 NA
ATOM      2  N   UNL     1     -34.107 -13.849 151.460  1.00  0.00    -0.361 N 
ATOM      3  C   UNL     1     -30.545 -16.485 150.118  1.00  0.00     0.091 C 
ATOM      4  C   UNL     1     -30.155 -15.128 149.438  1.00  0.00    -0.026 C 
ATOM      5  C   UNL     1     -31.409 -16.366 151.428  1.00  0.00     0.061 C 
ATOM      6  C   UNL     1     -28.676 -17.521 148.973  1.00  0.00     0.102 C 
ATOM      7  C   UNL     1     -28.082 -16.173 148.524  1.00  0.00     0.116 C 
ATOM      8  C   UNL     1     -32.430 -15.293 151.296  1.00  0.00    -0.020 A 
ATOM      9  C   UNL     1     -31.139 -14.018 149.507  1.00  0.00    -0.011 A 
ATOM     10  C   UNL     1     -29.004 -15.002 148.745  1.00  0.00    -0.007 C 
ATOM     11  C   UNL     1     -32.203 -14.228 150.398  1.00  0.00     0.010 A 
ATOM     12  C   UNL     1     -33.244 -13.321 150.524  1.00  0.00     0.046 A 
ATOM     13  C   UNL     1     -33.620 -15.045 151.941  1.00  0.00     0.087 A 
ATOM     14  C   UNL     1     -31.164 -12.829 148.763  1.00  0.00     0.009 A 
ATOM     15  C   UNL     1     -33.282 -12.139 149.783  1.00  0.00     0.027 A 
ATOM     16  C   UNL     1     -32.214 -11.910 148.904  1.00  0.00     0.003 A 
ATOM     17  H   UNL     1     -34.964 -13.408 151.763  1.00  0.00     0.166 HD
ENDROOT
BRANCH   7  18
ATOM     18  C   UNL     1     -27.516 -16.284 147.095  1.00  0.00     0.230 C 
ATOM     19  O   UNL     1     -28.327 -16.412 146.167  1.00  0.00    -0.274 OA
ATOM     20  N   UNL     1     -26.151 -16.197 146.831  1.00  0.00    -0.343 N 
BRANCH  20  21
ATOM     21  C   UNL     1     -25.741 -16.193 145.422  1.00  0.00     0.116 C 
ATOM     22  C   UNL     1     -24.584 -15.235 145.179  1.00  0.00     0.027 C 
ENDBRANCH  20  21
BRANCH  20  23
ATOM     23  C   UNL     1     -25.072 -16.090 147.818  1.00  0.00     0.116 C 
ATOM     24  C   UNL     1     -24.470 -17.444 148.165  1.00  0.00     0.027 C 
ENDBRANCH  20  23
ENDBRANCH   7  18
BRANCH   1  25
ATOM     25  C   UNL     1     -28.524 -17.159 151.406  1.00  0.00     0.085 C 
BRANCH  25  26
ATOM     26  C   UNL     1     -27.583 -18.297 151.839  1.00  0.00     0.012 C 
ATOM     27  C   UNL     1     -26.125 -18.036 151.488  1.00  0.00     0.005 C 
ENDBRANCH  25  26
ENDBRANCH   1  25
TORSDOF 5
ENDMDL
MODEL 13
REMARK VINA RESULT:    -8.744      3.492      5.646
REMARK INTER + INTRA:         -11.552
REMARK INTER:                 -10.983
REMARK INTRA:                  -0.570
REMARK UNBOUND:                -0.253
REMARK SMILES CCCN1C[C@H](C(=O)N(CC)CC)C=C2c3cccc4[nH]cc(c34)C[C@H]21
REMARK SMILES IDX 4 1 21 2 26 3 15 4 25 5 5 6 6 7 23 8 16 9 14 10 24 11 20 12
REMARK SMILES IDX 22 13 17 14 19 15 18 16 7 18 8 19 9 20 10 21 11 22 12 23
REMARK SMILES IDX 13 24 3 25 2 26 1 27
REMARK H PARENT 21 17
ROOT
ATOM      1  N   UNL     1     -24.418 -17.823 149.621  1.00  0.00    -0.295 NA
ATOM      2  N   UNL     1     -29.684 -18.278 152.553  1.00  0.00    -0.361 N 
ATOM      3  C   UNL     1     -25.885 -17.889 149.936  1.00  0.00     0.091 C 
ATOM      4  C   UNL     1     -26.711 -16.667 149.406  1.00  0.00    -0.026 C 
ATOM      5  C   UNL     1     -26.171 -18.309 151.425  1.00  0.00     0.061 C 
ATOM      6  C   UNL     1     -24.251 -17.454 148.198  1.00  0.00     0.102 C 
ATOM      7  C   UNL     1     -24.861 -16.088 147.835  1.00  0.00     0.116 C 
ATOM      8  C   UNL     1     -27.623 -18.217 151.734  1.00  0.00    -0.020 A 
ATOM      9  C   UNL     1     -28.101 -16.511 149.904  1.00  0.00    -0.011 A 
ATOM     10  C   UNL     1     -26.204 -15.837 148.470  1.00  0.00    -0.007 C 
ATOM     11  C   UNL     1     -28.434 -17.332 150.991  1.00  0.00     0.010 A 
ATOM     12  C   UNL     1     -29.714 -17.361 151.525  1.00  0.00     0.046 A 
ATOM     13  C   UNL     1     -28.417 -18.801 152.694  1.00  0.00     0.087 A 
ATOM     14  C   UNL     1     -29.122 -15.696 149.392  1.00  0.00     0.009 A 
ATOM     15  C   UNL     1     -30.738 -16.559 151.019  1.00  0.00     0.027 A 
ATOM     16  C   UNL     1     -30.411 -15.721 149.944  1.00  0.00     0.003 A 
ATOM     17  H   UNL     1     -30.477 -18.515 153.133  1.00  0.00     0.166 HD
ENDROOT
BRANCH   7  18
ATOM     18  C   UNL     1     -24.822 -15.870 146.310  1.00  0.00     0.230 C 
ATOM     19  O   UNL     1     -24.564 -16.851 145.598  1.00  0.00    -0.274 OA
ATOM     20  N   UNL     1     -25.110 -14.636 145.731  1.00  0.00    -0.343 N 
BRANCH  20  21
ATOM     21  C   UNL     1     -25.162 -14.579 144.267  1.00  0.00     0.116 C 
ATOM     22  C   UNL     1     -26.273 -13.659 143.781  1.00  0.00     0.027 C 
ENDBRANCH  20  21
BRANCH  20  23
ATOM     23  C   UNL     1     -25.388 -13.380 146.437  1.00  0.00     0.116 C 
ATOM     24  C   UNL     1     -24.146 -12.514 146.585  1.00  0.00     0.027 C 
ENDBRANCH  20  23
ENDBRANCH   7  18
BRANCH   1  25
ATOM     25  C   UNL     1     -23.661 -16.947 150.536  1.00  0.00     0.085 C 
BRANCH  25  26
ATOM     26  C   UNL     1     -22.175 -16.742 150.193  1.00  0.00     0.012 C 
ATOM     27  C   UNL     1     -21.329 -16.348 151.397  1.00  0.00     0.005 C 
ENDBRANCH  25  26
ENDBRANCH   1  25
TORSDOF 5
ENDMDL
MODEL 14
REMARK VINA RESULT:    -8.740      1.499      2.006
REMARK INTER + INTRA:         -11.548
REMARK INTER:                 -10.961
REMARK INTRA:                  -0.588
REMARK UNBOUND:                -0.253
REMARK SMILES CCCN1C[C@H](C(=O)N(CC)CC)C=C2c3cccc4[nH]cc(c34)C[C@H]21
REMARK SMILES IDX 4 1 21 2 26 3 15 4 25 5 5 6 6 7 23 8 16 9 14 10 24 11 20 12
REMARK SMILES IDX 22 13 17 14 19 15 18 16 7 18 8 19 9 20 10 21 11 22 12 23
REMARK SMILES IDX 13 24 3 25 2 26 1 27
REMARK H PARENT 21 17
ROOT
ATOM      1  N   UNL     1     -26.322 -11.927 144.084  1.00  0.00    -0.295 NA
ATOM      2  N   UNL     1     -27.972 -15.788 148.432  1.00  0.00    -0.361 N 
ATOM      3  C   UNL     1     -27.132 -12.824 144.976  1.00  0.00     0.091 C 
ATOM      4  C   UNL     1     -28.361 -12.121 145.648  1.00  0.00    -0.026 C 
ATOM      5  C   UNL     1     -26.239 -13.698 145.934  1.00  0.00     0.061 C 
ATOM      6  C   UNL     1     -27.243 -11.174 143.202  1.00  0.00     0.102 C 
ATOM      7  C   UNL     1     -28.243 -10.285 143.964  1.00  0.00     0.116 C 
ATOM      8  C   UNL     1     -27.080 -14.456 146.898  1.00  0.00    -0.020 A 
ATOM      9  C   UNL     1     -29.047 -12.845 146.749  1.00  0.00    -0.011 A 
ATOM     10  C   UNL     1     -28.827 -10.941 145.188  1.00  0.00    -0.007 C 
ATOM     11  C   UNL     1     -28.359 -13.966 147.237  1.00  0.00     0.010 A 
ATOM     12  C   UNL     1     -28.899 -14.792 148.211  1.00  0.00     0.046 A 
ATOM     13  C   UNL     1     -26.860 -15.591 147.644  1.00  0.00     0.087 A 
ATOM     14  C   UNL     1     -30.304 -12.581 147.314  1.00  0.00     0.009 A 
ATOM     15  C   UNL     1     -30.151 -14.541 148.775  1.00  0.00     0.027 A 
ATOM     16  C   UNL     1     -30.839 -13.412 148.308  1.00  0.00     0.003 A 
ATOM     17  H   UNL     1     -28.088 -16.542 149.095  1.00  0.00     0.166 HD
ENDROOT
BRANCH   7  18
ATOM     18  C   UNL     1     -29.285  -9.696 142.994  1.00  0.00     0.230 C 
ATOM     19  O   UNL     1     -30.161 -10.458 142.561  1.00  0.00    -0.274 OA
ATOM     20  N   UNL     1     -29.288  -8.348 142.641  1.00  0.00    -0.343 N 
BRANCH  20  21
ATOM     21  C   UNL     1     -30.400  -7.876 141.809  1.00  0.00     0.116 C 
ATOM     22  C   UNL     1     -30.049  -7.917 140.329  1.00  0.00     0.027 C 
ENDBRANCH  20  21
BRANCH  20  23
ATOM     23  C   UNL     1     -28.300  -7.337 143.032  1.00  0.00     0.116 C 
ATOM     24  C   UNL     1     -28.802  -5.919 142.799  1.00  0.00     0.027 C 
ENDBRANCH  20  23
ENDBRANCH   7  18
BRANCH   1  25
ATOM     25  C   UNL     1     -25.388 -11.054 144.821  1.00  0.00     0.085 C 
BRANCH  25  26
ATOM     26  C   UNL     1     -23.916 -11.123 144.382  1.00  0.00     0.012 C 
ATOM     27  C   UNL     1     -23.114 -12.180 145.130  1.00  0.00     0.005 C 
ENDBRANCH  25  26
ENDBRANCH   1  25
TORSDOF 5
ENDMDL
MODEL 15
REMARK VINA RESULT:    -8.697      2.675      6.874
REMARK INTER + INTRA:         -11.492
REMARK INTER:                 -11.485
REMARK INTRA:                  -0.007
REMARK UNBOUND:                -0.253
REMARK SMILES CCCN1C[C@H](C(=O)N(CC)CC)C=C2c3cccc4[nH]cc(c34)C[C@H]21
REMARK SMILES IDX 4 1 21 2 26 3 15 4 25 5 5 6 6 7 23 8 16 9 14 10 24 11 20 12
REMARK SMILES IDX 22 13 17 14 19 15 18 16 7 18 8 19 9 20 10 21 11 22 12 23
REMARK SMILES IDX 13 24 3 25 2 26 1 27
REMARK H PARENT 21 17
ROOT
ATOM      1  N   UNL     1     -25.860 -15.919 147.591  1.00  0.00    -0.295 NA
ATOM      2  N   UNL     1     -23.900 -11.134 144.461  1.00  0.00    -0.361 N 
ATOM      3  C   UNL     1     -25.668 -14.522 147.075  1.00  0.00     0.091 C 
ATOM      4  C   UNL     1     -26.988 -13.827 146.596  1.00  0.00    -0.026 C 
ATOM      5  C   UNL     1     -24.439 -14.395 146.100  1.00  0.00     0.061 C 
ATOM      6  C   UNL     1     -27.012 -15.931 148.520  1.00  0.00     0.102 C 
ATOM      7  C   UNL     1     -28.338 -15.493 147.871  1.00  0.00     0.116 C 
ATOM      8  C   UNL     1     -24.375 -13.036 145.499  1.00  0.00    -0.020 A 
ATOM      9  C   UNL     1     -26.857 -12.566 145.823  1.00  0.00    -0.011 A 
ATOM     10  C   UNL     1     -28.198 -14.314 146.944  1.00  0.00    -0.007 C 
ATOM     11  C   UNL     1     -25.557 -12.273 145.386  1.00  0.00     0.010 A 
ATOM     12  C   UNL     1     -25.254 -11.097 144.718  1.00  0.00     0.046 A 
ATOM     13  C   UNL     1     -23.356 -12.311 144.926  1.00  0.00     0.087 A 
ATOM     14  C   UNL     1     -27.850 -11.619 145.527  1.00  0.00     0.009 A 
ATOM     15  C   UNL     1     -26.233 -10.146 144.425  1.00  0.00     0.027 A 
ATOM     16  C   UNL     1     -27.540 -10.437 144.839  1.00  0.00     0.003 A 
ATOM     17  H   UNL     1     -23.387 -10.407 143.981  1.00  0.00     0.166 HD
ENDROOT
BRANCH   7  18
ATOM     18  C   UNL     1     -29.436 -15.342 148.941  1.00  0.00     0.230 C 
ATOM     19  O   UNL     1     -30.021 -14.251 149.010  1.00  0.00    -0.274 OA
ATOM     20  N   UNL     1     -29.805 -16.393 149.777  1.00  0.00    -0.343 N 
BRANCH  20  21
ATOM     21  C   UNL     1     -30.946 -16.169 150.671  1.00  0.00     0.116 C 
ATOM     22  C   UNL     1     -30.492 -15.838 152.085  1.00  0.00     0.027 C 
ENDBRANCH  20  21
BRANCH  20  23
ATOM     23  C   UNL     1     -29.181 -17.719 149.845  1.00  0.00     0.116 C 
ATOM     24  C   UNL     1     -28.363 -17.908 151.114  1.00  0.00     0.027 C 
ENDBRANCH  20  23
ENDBRANCH   7  18
BRANCH   1  25
ATOM     25  C   UNL     1     -25.973 -16.929 146.521  1.00  0.00     0.085 C 
BRANCH  25  26
ATOM     26  C   UNL     1     -24.953 -18.079 146.572  1.00  0.00     0.012 C 
ATOM     27  C   UNL     1     -23.834 -17.846 147.579  1.00  0.00     0.005 C 
ENDBRANCH  25  26
ENDBRANCH   1  25
TORSDOF 5
ENDMDL
MODEL 16
REMARK VINA RESULT:    -8.660      1.642      2.246
REMARK INTER + INTRA:         -11.444
REMARK INTER:                 -11.366
REMARK INTRA:                  -0.078
REMARK UNBOUND:                -0.253
REMARK SMILES CCCN1C[C@H](C(=O)N(CC)CC)C=C2c3cccc4[nH]cc(c34)C[C@H]21
REMARK SMILES IDX 4 1 21 2 26 3 15 4 25 5 5 6 6 7 23 8 16 9 14 10 24 11 20 12
REMARK SMILES IDX 22 13 17 14 19 15 18 16 7 18 8 19 9 20 10 21 11 22 12 23
REMARK SMILES IDX 13 24 3 25 2 26 1 27
REMARK H PARENT 21 17
ROOT
ATOM      1  N   UNL     1     -27.297 -13.444 145.481  1.00  0.00    -0.295 NA
ATOM      2  N   UNL     1     -29.881 -16.617 149.930  1.00  0.00    -0.361 N 
ATOM      3  C   UNL     1     -28.306 -14.045 146.416  1.00  0.00     0.091 C 
ATOM      4  C   UNL     1     -29.218 -12.995 147.138  1.00  0.00    -0.026 C 
ATOM      5  C   UNL     1     -27.693 -15.163 147.339  1.00  0.00     0.061 C 
ATOM      6  C   UNL     1     -27.971 -12.433 144.636  1.00  0.00     0.102 C 
ATOM      7  C   UNL     1     -28.604 -11.278 145.435  1.00  0.00     0.116 C 
ATOM      8  C   UNL     1     -28.685 -15.624 148.346  1.00  0.00    -0.020 A 
ATOM      9  C   UNL     1     -30.047 -13.473 148.274  1.00  0.00    -0.011 A 
ATOM     10  C   UNL     1     -29.308 -11.726 146.690  1.00  0.00    -0.007 C 
ATOM     11  C   UNL     1     -29.727 -14.757 148.739  1.00  0.00     0.010 A 
ATOM     12  C   UNL     1     -30.455 -15.377 149.743  1.00  0.00     0.046 A 
ATOM     13  C   UNL     1     -28.801 -16.775 149.090  1.00  0.00     0.087 A 
ATOM     14  C   UNL     1     -31.129 -12.829 148.893  1.00  0.00     0.009 A 
ATOM     15  C   UNL     1     -31.537 -14.748 150.361  1.00  0.00     0.027 A 
ATOM     16  C   UNL     1     -31.854 -13.456 149.917  1.00  0.00     0.003 A 
ATOM     17  H   UNL     1     -30.199 -17.300 150.603  1.00  0.00     0.166 HD
ENDROOT
BRANCH   7  18
ATOM     18  C   UNL     1     -29.449 -10.384 144.509  1.00  0.00     0.230 C 
ATOM     19  O   UNL     1     -30.544  -9.989 144.936  1.00  0.00    -0.274 OA
ATOM     20  N   UNL     1     -28.997  -9.982 143.254  1.00  0.00    -0.343 N 
BRANCH  20  21
ATOM     21  C   UNL     1     -29.834  -9.031 142.514  1.00  0.00     0.116 C 
ATOM     22  C   UNL     1     -29.289  -7.613 142.609  1.00  0.00     0.027 C 
ENDBRANCH  20  21
BRANCH  20  23
ATOM     23  C   UNL     1     -27.754 -10.396 142.596  1.00  0.00     0.116 C 
ATOM     24  C   UNL     1     -27.990 -10.899 141.179  1.00  0.00     0.027 C 
ENDBRANCH  20  23
ENDBRANCH   7  18
BRANCH   1  25
ATOM     25  C   UNL     1     -26.102 -12.916 146.168  1.00  0.00     0.085 C 
BRANCH  25  26
ATOM     26  C   UNL     1     -25.060 -12.228 145.270  1.00  0.00     0.012 C 
ATOM     27  C   UNL     1     -23.639 -12.334 145.808  1.00  0.00     0.005 C 
ENDBRANCH  25  26
ENDBRANCH   1  25
TORSDOF 5
ENDMDL
MODEL 17
REMARK VINA RESULT:    -8.646      2.372      6.151
REMARK INTER + INTRA:         -11.426
REMARK INTER:                 -10.729
REMARK INTRA:                  -0.697
REMARK UNBOUND:                -0.253
REMARK SMILES CCCN1C[C@H](C(=O)N(CC)CC)C=C2c3cccc4[nH]cc(c34)C[C@H]21
REMARK SMILES IDX 4 1 21 2 26 3 15 4 25 5 5 6 6 7 23 8 16 9 14 10 24 11 20 12
REMARK SMILES IDX 22 13 17 14 19 15 18 16 7 18 8 19 9 20 10 21 11 22 12 23
REMARK SMILES IDX 13 24 3 25 2 26 1 27
REMARK H PARENT 21 17
ROOT
ATOM      1  N   UNL     1     -25.950 -12.911 142.687  1.00  0.00    -0.295 NA
ATOM      2  N   UNL     1     -30.216  -8.966 144.352  1.00  0.00    -0.361 N 
ATOM      3  C   UNL     1     -26.834 -12.012 143.502  1.00  0.00     0.091 C 
ATOM      4  C   UNL     1     -27.560 -12.731 144.690  1.00  0.00    -0.026 C 
ATOM      5  C   UNL     1     -27.741 -11.080 142.615  1.00  0.00     0.061 C 
ATOM      6  C   UNL     1     -25.117 -13.721 143.604  1.00  0.00     0.102 C 
ATOM      7  C   UNL     1     -25.932 -14.616 144.556  1.00  0.00     0.116 C 
ATOM      8  C   UNL     1     -28.702 -10.317 143.455  1.00  0.00    -0.020 A 
ATOM      9  C   UNL     1     -28.655 -11.994 145.372  1.00  0.00    -0.011 A 
ATOM     10  C   UNL     1     -27.149 -13.939 145.129  1.00  0.00    -0.007 C 
ATOM     11  C   UNL     1     -29.089 -10.837 144.709  1.00  0.00     0.010 A 
ATOM     12  C   UNL     1     -30.050  -9.997 145.251  1.00  0.00     0.046 A 
ATOM     13  C   UNL     1     -29.406  -9.153 143.254  1.00  0.00     0.087 A 
ATOM     14  C   UNL     1     -29.260 -12.280 146.605  1.00  0.00     0.009 A 
ATOM     15  C   UNL     1     -30.654 -10.269 146.480  1.00  0.00     0.027 A 
ATOM     16  C   UNL     1     -30.241 -11.434 147.142  1.00  0.00     0.003 A 
ATOM     17  H   UNL     1     -30.857  -8.195 144.475  1.00  0.00     0.166 HD
ENDROOT
BRANCH   7  18
ATOM     18  C   UNL     1     -25.008 -15.269 145.601  1.00  0.00     0.230 C 
ATOM     19  O   UNL     1     -23.969 -14.666 145.904  1.00  0.00    -0.274 OA
ATOM     20  N   UNL     1     -25.334 -16.469 146.231  1.00  0.00    -0.343 N 
BRANCH  20  21
ATOM     21  C   UNL     1     -24.439 -16.931 147.297  1.00  0.00     0.116 C 
ATOM     22  C   UNL     1     -23.556 -18.078 146.830  1.00  0.00     0.027 C 
ENDBRANCH  20  21
BRANCH  20  23
ATOM     23  C   UNL     1     -26.497 -17.317 145.951  1.00  0.00     0.116 C 
ATOM     24  C   UNL     1     -27.665 -17.021 146.881  1.00  0.00     0.027 C 
ENDBRANCH  20  23
ENDBRANCH   7  18
BRANCH   1  25
ATOM     25  C   UNL     1     -26.690 -13.730 141.707  1.00  0.00     0.085 C 
BRANCH  25  26
ATOM     26  C   UNL     1     -26.436 -13.399 140.226  1.00  0.00     0.012 C 
ATOM     27  C   UNL     1     -27.607 -12.689 139.560  1.00  0.00     0.005 C 
ENDBRANCH  25  26
ENDBRANCH   1  25
TORSDOF 5
ENDMDL
MODEL 18
REMARK VINA RESULT:    -8.417      2.550      6.864
REMARK INTER + INTRA:         -11.130
REMARK INTER:                 -10.710
REMARK INTRA:                  -0.420
REMARK UNBOUND:                -0.253
REMARK SMILES CCCN1C[C@H](C(=O)N(CC)CC)C=C2c3cccc4[nH]cc(c34)C[C@H]21
REMARK SMILES IDX 4 1 21 2 26 3 15 4 25 5 5 6 6 7 23 8 16 9 14 10 24 11 20 12
REMARK SMILES IDX 22 13 17 14 19 15 18 16 7 18 8 19 9 20 10 21 11 22 12 23
REMARK SMILES IDX 13 24 3 25 2 26 1 27
REMARK H PARENT 21 17
ROOT
ATOM      1  N   UNL     1     -27.422 -15.365 147.242  1.00  0.00    -0.295 NA
ATOM      2  N   UNL     1     -25.974 -10.734 143.636  1.00  0.00    -0.361 N 
ATOM      3  C   UNL     1     -27.278 -13.986 146.663  1.00  0.00     0.091 C 
ATOM      4  C   UNL     1     -28.635 -13.224 146.477  1.00  0.00    -0.026 C 
ATOM      5  C   UNL     1     -26.298 -13.941 145.432  1.00  0.00     0.061 C 
ATOM      6  C   UNL     1     -28.332 -15.300 148.408  1.00  0.00     0.102 C 
ATOM      7  C   UNL     1     -29.746 -14.796 148.064  1.00  0.00     0.116 C 
ATOM      8  C   UNL     1     -26.301 -12.595 144.800  1.00  0.00    -0.020 A 
ATOM      9  C   UNL     1     -28.617 -11.981 145.665  1.00  0.00    -0.011 A 
ATOM     10  C   UNL     1     -29.757 -13.637 147.102  1.00  0.00    -0.007 C 
ATOM     11  C   UNL     1     -27.436 -11.767 144.939  1.00  0.00     0.010 A 
ATOM     12  C   UNL     1     -27.231 -10.617 144.191  1.00  0.00     0.046 A 
ATOM     13  C   UNL     1     -25.402 -11.935 143.995  1.00  0.00     0.087 A 
ATOM     14  C   UNL     1     -29.600 -10.983 145.578  1.00  0.00     0.009 A 
ATOM     15  C   UNL     1     -28.200  -9.616 144.104  1.00  0.00     0.027 A 
ATOM     16  C   UNL     1     -29.392  -9.829 144.810  1.00  0.00     0.003 A 
ATOM     17  H   UNL     1     -25.547 -10.043 143.036  1.00  0.00     0.166 HD
ENDROOT
BRANCH   7  18
ATOM     18  C   UNL     1     -30.563 -14.570 149.350  1.00  0.00     0.230 C 
ATOM     19  O   UNL     1     -31.102 -13.464 149.500  1.00  0.00    -0.274 OA
ATOM     20  N   UNL     1     -30.742 -15.574 150.300  1.00  0.00    -0.343 N 
BRANCH  20  21
ATOM     21  C   UNL     1     -31.640 -15.283 151.422  1.00  0.00     0.116 C 
ATOM     22  C   UNL     1     -32.961 -16.027 151.290  1.00  0.00     0.027 C 
ENDBRANCH  20  21
BRANCH  20  23
ATOM     23  C   UNL     1     -30.137 -16.910 150.286  1.00  0.00     0.116 C 
ATOM     24  C   UNL     1     -29.418 -17.232 151.589  1.00  0.00     0.027 C 
ENDBRANCH  20  23
ENDBRANCH   7  18
BRANCH   1  25
ATOM     25  C   UNL     1     -27.828 -16.379 146.250  1.00  0.00     0.085 C 
BRANCH  25  26
ATOM     26  C   UNL     1     -26.931 -17.625 146.158  1.00  0.00     0.012 C 
ATOM     27  C   UNL     1     -25.500 -17.371 146.613  1.00  0.00     0.005 C 
ENDBRANCH  25  26
ENDBRANCH   1  25
TORSDOF 5
ENDMDL
MODEL 19
REMARK VINA RESULT:    -8.411      3.202      7.098
REMARK INTER + INTRA:         -11.122
REMARK INTER:                 -10.518
REMARK INTRA:                  -0.604
REMARK UNBOUND:                -0.253
REMARK SMILES CCCN1C[C@H](C(=O)N(CC)CC)C=C2c3cccc4[nH]cc(c34)C[C@H]21
REMARK SMILES IDX 4 1 21 2 26 3 15 4 25 5 5 6 6 7 23 8 16 9 14 10 24 11 20 12
REMARK SMILES IDX 22 13 17 14 19 15 18 16 7 18 8 19 9 20 10 21 11 22 12 23
REMARK SMILES IDX 13 24 3 25 2 26 1 27
REMARK H PARENT 21 17
ROOT
ATOM      1  N   UNL     1     -28.691 -14.333 146.379  1.00  0.00    -0.295 NA
ATOM      2  N   UNL     1     -23.368 -16.738 144.825  1.00  0.00    -0.361 N 
ATOM      3  C   UNL     1     -27.530 -15.273 146.229  1.00  0.00     0.091 C 
ATOM      4  C   UNL     1     -26.953 -15.803 147.586  1.00  0.00    -0.026 C 
ATOM      5  C   UNL     1     -26.464 -14.764 145.188  1.00  0.00     0.061 C 
ATOM      6  C   UNL     1     -29.650 -14.910 147.347  1.00  0.00     0.102 C 
ATOM      7  C   UNL     1     -29.056 -15.135 148.750  1.00  0.00     0.116 C 
ATOM      8  C   UNL     1     -25.266 -15.646 145.180  1.00  0.00    -0.020 A 
ATOM      9  C   UNL     1     -25.647 -16.509 147.547  1.00  0.00    -0.011 A 
ATOM     10  C   UNL     1     -27.657 -15.694 148.732  1.00  0.00    -0.007 C 
ATOM     11  C   UNL     1     -24.951 -16.396 146.334  1.00  0.00     0.010 A 
ATOM     12  C   UNL     1     -23.753 -17.058 146.110  1.00  0.00     0.046 A 
ATOM     13  C   UNL     1     -24.277 -15.876 144.253  1.00  0.00     0.087 A 
ATOM     14  C   UNL     1     -25.058 -17.306 148.540  1.00  0.00     0.009 A 
ATOM     15  C   UNL     1     -23.163 -17.858 147.089  1.00  0.00     0.027 A 
ATOM     16  C   UNL     1     -23.840 -17.963 148.312  1.00  0.00     0.003 A 
ATOM     17  H   UNL     1     -22.527 -17.075 144.379  1.00  0.00     0.166 HD
ENDROOT
BRANCH   7  18
ATOM     18  C   UNL     1     -30.047 -15.915 149.635  1.00  0.00     0.230 C 
ATOM     19  O   UNL     1     -29.823 -17.120 149.822  1.00  0.00    -0.274 OA
ATOM     20  N   UNL     1     -31.134 -15.297 150.251  1.00  0.00    -0.343 N 
BRANCH  20  21
ATOM     21  C   UNL     1     -31.937 -16.113 151.167  1.00  0.00     0.116 C 
ATOM     22  C   UNL     1     -31.353 -16.116 152.572  1.00  0.00     0.027 C 
ENDBRANCH  20  21
BRANCH  20  23
ATOM     23  C   UNL     1     -31.553 -13.901 150.093  1.00  0.00     0.116 C 
ATOM     24  C   UNL     1     -33.065 -13.740 150.165  1.00  0.00     0.027 C 
ENDBRANCH  20  23
ENDBRANCH   7  18
BRANCH   1  25
ATOM     25  C   UNL     1     -28.290 -12.954 146.718  1.00  0.00     0.085 C 
BRANCH  25  26
ATOM     26  C   UNL     1     -29.324 -11.858 146.410  1.00  0.00     0.012 C 
ATOM     27  C   UNL     1     -29.059 -11.132 145.098  1.00  0.00     0.005 C 
ENDBRANCH  25  26
ENDBRANCH   1  25
TORSDOF 5
ENDMDL
MODEL 20
REMARK VINA RESULT:    -8.341      3.026      6.960
REMARK INTER + INTRA:         -11.032
REMARK INTER:                 -10.647
REMARK INTRA:                  -0.385
REMARK UNBOUND:                -0.253
REMARK SMILES CCCN1C[C@H](C(=O)N(CC)CC)C=C2c3cccc4[nH]cc(c34)C[C@H]21
REMARK SMILES IDX 4 1 21 2 26 3 15 4 25 5 5 6 6 7 23 8 16 9 14 10 24 11 20 12
REMARK SMILES IDX 22 13 17 14 19 15 18 16 7 18 8 19 9 20 10 21 11 22 12 23
REMARK SMILES IDX 13 24 3 25 2 26 1 27
REMARK H PARENT 21 17
ROOT
ATOM      1  N   UNL     1     -24.562 -15.811 146.949  1.00  0.00    -0.295 NA
ATOM      2  N   UNL     1     -27.012 -10.843 144.531  1.00  0.00    -0.361 N 
ATOM      3  C   UNL     1     -25.348 -14.546 146.756  1.00  0.00     0.091 C 
ATOM      4  C   UNL     1     -26.870 -14.676 147.105  1.00  0.00    -0.026 C 
ATOM      5  C   UNL     1     -25.021 -13.826 145.395  1.00  0.00     0.061 C 
ATOM      6  C   UNL     1     -24.912 -16.395 148.263  1.00  0.00     0.102 C 
ATOM      7  C   UNL     1     -26.403 -16.752 148.407  1.00  0.00     0.116 C 
ATOM      8  C   UNL     1     -25.925 -12.665 145.177  1.00  0.00    -0.020 A 
ATOM      9  C   UNL     1     -27.767 -13.569 146.686  1.00  0.00    -0.011 A 
ATOM     10  C   UNL     1     -27.333 -15.715 147.832  1.00  0.00    -0.007 C 
ATOM     11  C   UNL     1     -27.193 -12.649 145.797  1.00  0.00     0.010 A 
ATOM     12  C   UNL     1     -27.872 -11.518 145.369  1.00  0.00     0.046 A 
ATOM     13  C   UNL     1     -25.827 -11.533 144.402  1.00  0.00     0.087 A 
ATOM     14  C   UNL     1     -29.079 -13.305 147.107  1.00  0.00     0.009 A 
ATOM     15  C   UNL     1     -29.175 -11.243 145.787  1.00  0.00     0.027 A 
ATOM     16  C   UNL     1     -29.766 -12.167 146.661  1.00  0.00     0.003 A 
ATOM     17  H   UNL     1     -27.232  -9.974 144.062  1.00  0.00     0.166 HD
ENDROOT
BRANCH   7  18
ATOM     18  C   UNL     1     -26.720 -17.164 149.857  1.00  0.00     0.230 C 
ATOM     19  O   UNL     1     -25.763 -17.323 150.630  1.00  0.00    -0.274 OA
ATOM     20  N   UNL     1     -28.027 -17.309 150.317  1.00  0.00    -0.343 N 
BRANCH  20  21
ATOM     21  C   UNL     1     -28.208 -17.583 151.747  1.00  0.00     0.116 C 
ATOM     22  C   UNL     1     -28.582 -19.036 151.996  1.00  0.00     0.027 C 
ENDBRANCH  20  21
BRANCH  20  23
ATOM     23  C   UNL     1     -29.253 -17.198 149.520  1.00  0.00     0.116 C 
ATOM     24  C   UNL     1     -30.155 -16.070 150.002  1.00  0.00     0.027 C 
ENDBRANCH  20  23
ENDBRANCH   7  18
BRANCH   1  25
ATOM     25  C   UNL     1     -24.710 -16.769 145.836  1.00  0.00     0.085 C 
BRANCH  25  26
ATOM     26  C   UNL     1     -23.787 -17.998 145.881  1.00  0.00     0.012 C 
ATOM     27  C   UNL     1     -24.524 -19.294 146.192  1.00  0.00     0.005 C 
ENDBRANCH  25  26
ENDBRANCH   1  25
TORSDOF 5
ENDMDL
