MODEL 1
REMARK VINA RESULT:    -9.175      0.000      0.000
REMARK INTER + INTRA:         -12.676
REMARK INTER:                 -11.857
REMARK INTRA:                  -0.818
REMARK UNBOUND:                -0.818
REMARK SMILES CCCN1C[C@H](C(=O)N(CC)CC)C=C2c3cccc4[nH]cc(c34)C[C@H]21
REMARK SMILES IDX 4 1 21 2 26 3 15 4 25 5 5 6 6 7 23 8 16 9 14 10 24 11 20 12
REMARK SMILES IDX 22 13 17 14 19 15 18 16 7 18 8 19 9 20 10 21 11 22 12 23
REMARK SMILES IDX 13 24 3 25 2 26 1 27
REMARK H PARENT 21 17
ROOT
ATOM      1  N   UNL     1      -9.501 -18.909  19.738  1.00  0.00    -0.295 NA
ATOM      2  N   UNL     1      -6.167 -21.174  24.244  1.00  0.00    -0.361 N 
ATOM      3  C   UNL     1      -9.060 -19.669  20.957  1.00  0.00     0.091 C 
ATOM      4  C   UNL     1      -9.928 -19.397  22.232  1.00  0.00    -0.026 C 
ATOM      5  C   UNL     1      -7.502 -19.626  21.172  1.00  0.00     0.061 C 
ATOM      6  C   UNL     1     -10.969 -19.035  19.603  1.00  0.00     0.102 C 
ATOM      7  C   UNL     1     -11.754 -18.475  20.804  1.00  0.00     0.116 C 
ATOM      8  C   UNL     1      -7.125 -20.261  22.463  1.00  0.00    -0.020 A 
ATOM      9  C   UNL     1      -9.405 -19.884  23.534  1.00  0.00    -0.011 A 
ATOM     10  C   UNL     1     -11.142 -18.816  22.138  1.00  0.00    -0.007 C 
ATOM     11  C   UNL     1      -8.068 -20.308  23.512  1.00  0.00     0.010 A 
ATOM     12  C   UNL     1      -7.454 -20.859  24.626  1.00  0.00     0.046 A 
ATOM     13  C   UNL     1      -5.955 -20.809  22.933  1.00  0.00     0.087 A 
ATOM     14  C   UNL     1     -10.090 -20.020  24.751  1.00  0.00     0.009 A 
ATOM     15  C   UNL     1      -8.128 -21.005  25.839  1.00  0.00     0.027 A 
ATOM     16  C   UNL     1      -9.460 -20.567  25.878  1.00  0.00     0.003 A 
ATOM     17  H   UNL     1      -5.476 -21.593  24.849  1.00  0.00     0.166 HD
ENDROOT
BRANCH   7  18
ATOM     18  C   UNL     1     -13.250 -18.821  20.677  1.00  0.00     0.230 C 
ATOM     19  O   UNL     1     -13.543 -19.935  20.219  1.00  0.00    -0.274 OA
ATOM     20  N   UNL     1     -14.250 -17.948  21.100  1.00  0.00    -0.343 N 
BRANCH  20  21
ATOM     21  C   UNL     1     -15.632 -18.436  21.044  1.00  0.00     0.116 C 
ATOM     22  C   UNL     1     -16.257 -18.512  22.429  1.00  0.00     0.027 C 
ENDBRANCH  20  21
BRANCH  20  23
ATOM     23  C   UNL     1     -14.065 -16.589  21.619  1.00  0.00     0.116 C 
ATOM     24  C   UNL     1     -14.686 -15.536  20.713  1.00  0.00     0.027 C 
ENDBRANCH  20  23
ENDBRANCH   7  18
BRANCH   1  25
ATOM     25  C   UNL     1      -9.039 -17.508  19.723  1.00  0.00     0.085 C 
BRANCH  25  26
ATOM     26  C   UNL     1      -8.162 -17.103  18.526  1.00  0.00     0.012 C 
ATOM     27  C   UNL     1      -6.953 -16.266  18.923  1.00  0.00     0.005 C 
ENDBRANCH  25  26
ENDBRANCH   1  25
TORSDOF 5
ENDMDL
MODEL 2
REMARK VINA RESULT:    -9.002      2.138      2.943
REMARK INTER + INTRA:         -12.452
REMARK INTER:                 -11.648
REMARK INTRA:                  -0.805
REMARK UNBOUND:                -0.818
REMARK SMILES CCCN1C[C@H](C(=O)N(CC)CC)C=C2c3cccc4[nH]cc(c34)C[C@H]21
REMARK SMILES IDX 4 1 21 2 26 3 15 4 25 5 5 6 6 7 23 8 16 9 14 10 24 11 20 12
REMARK SMILES IDX 22 13 17 14 19 15 18 16 7 18 8 19 9 20 10 21 11 22 12 23
REMARK SMILES IDX 13 24 3 25 2 26 1 27
REMARK H PARENT 21 17
ROOT
ATOM      1  N   UNL     1      -9.250 -19.336  20.323  1.00  0.00    -0.295 NA
ATOM      2  N   UNL     1      -9.238 -20.319  26.287  1.00  0.00    -0.361 N 
ATOM      3  C   UNL     1      -9.662 -19.716  21.717  1.00  0.00     0.091 C 
ATOM      4  C   UNL     1     -10.977 -19.021  22.209  1.00  0.00    -0.026 C 
ATOM      5  C   UNL     1      -8.462 -19.700  22.734  1.00  0.00     0.061 C 
ATOM      6  C   UNL     1     -10.433 -19.413  19.438  1.00  0.00     0.102 C 
ATOM      7  C   UNL     1     -11.580 -18.471  19.851  1.00  0.00     0.116 C 
ATOM      8  C   UNL     1      -8.939 -19.935  24.123  1.00  0.00    -0.020 A 
ATOM      9  C   UNL     1     -11.306 -19.120  23.654  1.00  0.00    -0.011 A 
ATOM     10  C   UNL     1     -11.820 -18.427  21.338  1.00  0.00    -0.007 C 
ATOM     11  C   UNL     1     -10.269 -19.607  24.463  1.00  0.00     0.010 A 
ATOM     12  C   UNL     1     -10.440 -19.830  25.821  1.00  0.00     0.046 A 
ATOM     13  C   UNL     1      -8.317 -20.381  25.266  1.00  0.00     0.087 A 
ATOM     14  C   UNL     1     -12.525 -18.842  24.290  1.00  0.00     0.009 A 
ATOM     15  C   UNL     1     -11.650 -19.563  26.462  1.00  0.00     0.027 A 
ATOM     16  C   UNL     1     -12.688 -19.058  25.666  1.00  0.00     0.003 A 
ATOM     17  H   UNL     1      -9.058 -20.574  27.248  1.00  0.00     0.166 HD
ENDROOT
BRANCH   7  18
ATOM     18  C   UNL     1     -12.837 -18.753  19.007  1.00  0.00     0.230 C 
ATOM     19  O   UNL     1     -13.608 -19.638  19.404  1.00  0.00    -0.274 OA
ATOM     20  N   UNL     1     -13.140 -18.018  17.862  1.00  0.00    -0.343 N 
BRANCH  20  21
ATOM     21  C   UNL     1     -14.424 -18.294  17.210  1.00  0.00     0.116 C 
ATOM     22  C   UNL     1     -15.055 -17.024  16.656  1.00  0.00     0.027 C 
ENDBRANCH  20  21
BRANCH  20  23
ATOM     23  C   UNL     1     -12.312 -16.977  17.245  1.00  0.00     0.116 C 
ATOM     24  C   UNL     1     -11.377 -17.537  16.182  1.00  0.00     0.027 C 
ENDBRANCH  20  23
ENDBRANCH   7  18
BRANCH   1  25
ATOM     25  C   UNL     1      -8.559 -18.034  20.250  1.00  0.00     0.085 C 
BRANCH  25  26
ATOM     26  C   UNL     1      -8.400 -17.436  18.842  1.00  0.00     0.012 C 
ATOM     27  C   UNL     1      -7.254 -16.439  18.738  1.00  0.00     0.005 C 
ENDBRANCH  25  26
ENDBRANCH   1  25
TORSDOF 5
ENDMDL
MODEL 3
REMARK VINA RESULT:    -8.940      2.246      4.727
REMARK INTER + INTRA:         -12.372
REMARK INTER:                 -11.528
REMARK INTRA:                  -0.844
REMARK UNBOUND:                -0.818
REMARK SMILES CCCN1C[C@H](C(=O)N(CC)CC)C=C2c3cccc4[nH]cc(c34)C[C@H]21
REMARK SMILES IDX 4 1 21 2 26 3 15 4 25 5 5 6 6 7 23 8 16 9 14 10 24 11 20 12
REMARK SMILES IDX 22 13 17 14 19 15 18 16 7 18 8 19 9 20 10 21 11 22 12 23
REMARK SMILES IDX 13 24 3 25 2 26 1 27
REMARK H PARENT 21 17
ROOT
ATOM      1  N   UNL     1     -11.504 -19.757  25.723  1.00  0.00    -0.295 NA
ATOM      2  N   UNL     1      -5.830 -21.106  24.133  1.00  0.00    -0.361 N 
ATOM      3  C   UNL     1     -10.131 -19.701  25.117  1.00  0.00     0.091 C 
ATOM      4  C   UNL     1     -10.123 -19.495  23.564  1.00  0.00    -0.026 C 
ATOM      5  C   UNL     1      -9.179 -20.831  25.659  1.00  0.00     0.061 C 
ATOM      6  C   UNL     1     -12.311 -18.642  25.180  1.00  0.00     0.102 C 
ATOM      7  C   UNL     1     -12.481 -18.686  23.650  1.00  0.00     0.116 C 
ATOM      8  C   UNL     1      -7.884 -20.832  24.926  1.00  0.00    -0.020 A 
ATOM      9  C   UNL     1      -8.836 -19.703  22.851  1.00  0.00    -0.011 A 
ATOM     10  C   UNL     1     -11.223 -19.064  22.912  1.00  0.00    -0.007 C 
ATOM     11  C   UNL     1      -7.830 -20.312  23.615  1.00  0.00     0.010 A 
ATOM     12  C   UNL     1      -6.550 -20.508  23.121  1.00  0.00     0.046 A 
ATOM     13  C   UNL     1      -6.633 -21.313  25.233  1.00  0.00     0.087 A 
ATOM     14  C   UNL     1      -8.493 -19.321  21.545  1.00  0.00     0.009 A 
ATOM     15  C   UNL     1      -6.196 -20.126  21.826  1.00  0.00     0.027 A 
ATOM     16  C   UNL     1      -7.200 -19.533  21.047  1.00  0.00     0.003 A 
ATOM     17  H   UNL     1      -4.858 -21.372  24.066  1.00  0.00     0.166 HD
ENDROOT
BRANCH   7  18
ATOM     18  C   UNL     1     -13.157 -17.396  23.147  1.00  0.00     0.230 C 
ATOM     19  O   UNL     1     -12.822 -16.329  23.680  1.00  0.00    -0.274 OA
ATOM     20  N   UNL     1     -14.077 -17.402  22.101  1.00  0.00    -0.343 N 
BRANCH  20  21
ATOM     21  C   UNL     1     -14.561 -16.101  21.627  1.00  0.00     0.116 C 
ATOM     22  C   UNL     1     -15.982 -15.827  22.098  1.00  0.00     0.027 C 
ENDBRANCH  20  21
BRANCH  20  23
ATOM     23  C   UNL     1     -14.604 -18.580  21.404  1.00  0.00     0.116 C 
ATOM     24  C   UNL     1     -13.804 -18.917  20.153  1.00  0.00     0.027 C 
ENDBRANCH  20  23
ENDBRANCH   7  18
BRANCH   1  25
ATOM     25  C   UNL     1     -12.160 -21.070  25.570  1.00  0.00     0.085 C 
BRANCH  25  26
ATOM     26  C   UNL     1     -13.031 -21.528  26.752  1.00  0.00     0.012 C 
ATOM     27  C   UNL     1     -14.458 -21.003  26.687  1.00  0.00     0.005 C 
ENDBRANCH  25  26
ENDBRANCH   1  25
TORSDOF 5
ENDMDL
MODEL 4
REMARK VINA RESULT:    -8.870      1.966      2.627
REMARK INTER + INTRA:         -12.282
REMARK INTER:                 -11.504
REMARK INTRA:                  -0.778
REMARK UNBOUND:                -0.818
REMARK SMILES CCCN1C[C@H](C(=O)N(CC)CC)C=C2c3cccc4[nH]cc(c34)C[C@H]21
REMARK SMILES IDX 4 1 21 2 26 3 15 4 25 5 5 6 6 7 23 8 16 9 14 10 24 11 20 12
REMARK SMILES IDX 22 13 17 14 19 15 18 16 7 18 8 19 9 20 10 21 11 22 12 23
REMARK SMILES IDX 13 24 3 25 2 26 1 27
REMARK H PARENT 21 17
ROOT
ATOM      1  N   UNL     1      -9.166 -19.299  20.362  1.00  0.00    -0.295 NA
ATOM      2  N   UNL     1      -9.353 -20.376  26.307  1.00  0.00    -0.361 N 
ATOM      3  C   UNL     1      -9.630 -19.685  21.738  1.00  0.00     0.091 C 
ATOM      4  C   UNL     1     -10.932 -18.950  22.206  1.00  0.00    -0.026 C 
ATOM      5  C   UNL     1      -8.458 -19.729  22.787  1.00  0.00     0.061 C 
ATOM      6  C   UNL     1     -10.327 -19.317  19.444  1.00  0.00     0.102 C 
ATOM      7  C   UNL     1     -11.449 -18.341  19.843  1.00  0.00     0.116 C 
ATOM      8  C   UNL     1      -8.981 -19.969  24.158  1.00  0.00    -0.020 A 
ATOM      9  C   UNL     1     -11.304 -19.060  23.640  1.00  0.00    -0.011 A 
ATOM     10  C   UNL     1     -11.728 -18.311  21.323  1.00  0.00    -0.007 C 
ATOM     11  C   UNL     1     -10.307 -19.598  24.468  1.00  0.00     0.010 A 
ATOM     12  C   UNL     1     -10.523 -19.836  25.817  1.00  0.00     0.046 A 
ATOM     13  C   UNL     1      -8.407 -20.456  25.309  1.00  0.00     0.087 A 
ATOM     14  C   UNL     1     -12.529 -18.748  24.248  1.00  0.00     0.009 A 
ATOM     15  C   UNL     1     -11.740 -19.535  26.430  1.00  0.00     0.027 A 
ATOM     16  C   UNL     1     -12.737 -18.979  25.616  1.00  0.00     0.003 A 
ATOM     17  H   UNL     1      -9.209 -20.654  27.268  1.00  0.00     0.166 HD
ENDROOT
BRANCH   7  18
ATOM     18  C   UNL     1     -12.692 -18.562  18.961  1.00  0.00     0.230 C 
ATOM     19  O   UNL     1     -12.989 -19.731  18.671  1.00  0.00    -0.274 OA
ATOM     20  N   UNL     1     -13.495 -17.506  18.533  1.00  0.00    -0.343 N 
BRANCH  20  21
ATOM     21  C   UNL     1     -14.719 -17.849  17.802  1.00  0.00     0.116 C 
ATOM     22  C   UNL     1     -14.550 -17.651  16.303  1.00  0.00     0.027 C 
ENDBRANCH  20  21
BRANCH  20  23
ATOM     23  C   UNL     1     -13.253 -16.077  18.755  1.00  0.00     0.116 C 
ATOM     24  C   UNL     1     -14.004 -15.546  19.968  1.00  0.00     0.027 C 
ENDBRANCH  20  23
ENDBRANCH   7  18
BRANCH   1  25
ATOM     25  C   UNL     1      -8.427 -18.022  20.330  1.00  0.00     0.085 C 
BRANCH  25  26
ATOM     26  C   UNL     1      -8.243 -17.387  18.941  1.00  0.00     0.012 C 
ATOM     27  C   UNL     1      -7.160 -16.317  18.908  1.00  0.00     0.005 C 
ENDBRANCH  25  26
ENDBRANCH   1  25
TORSDOF 5
ENDMDL
MODEL 5
REMARK VINA RESULT:    -8.698      2.414      5.329
REMARK INTER + INTRA:         -12.059
REMARK INTER:                 -11.465
REMARK INTRA:                  -0.594
REMARK UNBOUND:                -0.818
REMARK SMILES CCCN1C[C@H](C(=O)N(CC)CC)C=C2c3cccc4[nH]cc(c34)C[C@H]21
REMARK SMILES IDX 4 1 21 2 26 3 15 4 25 5 5 6 6 7 23 8 16 9 14 10 24 11 20 12
REMARK SMILES IDX 22 13 17 14 19 15 18 16 7 18 8 19 9 20 10 21 11 22 12 23
REMARK SMILES IDX 13 24 3 25 2 26 1 27
REMARK H PARENT 21 17
ROOT
ATOM      1  N   UNL     1      -7.970 -19.577  23.554  1.00  0.00    -0.295 NA
ATOM      2  N   UNL     1      -8.824 -17.221  18.053  1.00  0.00    -0.361 N 
ATOM      3  C   UNL     1      -8.588 -18.915  22.356  1.00  0.00     0.091 C 
ATOM      4  C   UNL     1      -9.921 -19.580  21.871  1.00  0.00    -0.026 C 
ATOM      5  C   UNL     1      -7.539 -18.593  21.228  1.00  0.00     0.061 C 
ATOM      6  C   UNL     1      -9.023 -19.808  24.568  1.00  0.00     0.102 C 
ATOM      7  C   UNL     1     -10.167 -20.716  24.079  1.00  0.00     0.116 C 
ATOM      8  C   UNL     1      -8.212 -18.078  20.006  1.00  0.00    -0.020 A 
ATOM      9  C   UNL     1     -10.449 -19.171  20.545  1.00  0.00    -0.011 A 
ATOM     10  C   UNL     1     -10.606 -20.429  22.666  1.00  0.00    -0.007 C 
ATOM     11  C   UNL     1      -9.559 -18.424  19.760  1.00  0.00     0.010 A 
ATOM     12  C   UNL     1      -9.924 -17.903  18.528  1.00  0.00     0.046 A 
ATOM     13  C   UNL     1      -7.776 -17.326  18.941  1.00  0.00     0.087 A 
ATOM     14  C   UNL     1     -11.728 -19.390  20.012  1.00  0.00     0.009 A 
ATOM     15  C   UNL     1     -11.196 -18.110  17.992  1.00  0.00     0.027 A 
ATOM     16  C   UNL     1     -12.089 -18.871  18.760  1.00  0.00     0.003 A 
ATOM     17  H   UNL     1      -8.790 -16.733  17.169  1.00  0.00     0.166 HD
ENDROOT
BRANCH   7  18
ATOM     18  C   UNL     1     -11.309 -20.745  25.112  1.00  0.00     0.230 C 
ATOM     19  O   UNL     1     -11.385 -21.734  25.855  1.00  0.00    -0.274 OA
ATOM     20  N   UNL     1     -12.205 -19.687  25.254  1.00  0.00    -0.343 N 
BRANCH  20  21
ATOM     21  C   UNL     1     -13.174 -19.774  26.352  1.00  0.00     0.116 C 
ATOM     22  C   UNL     1     -12.734 -18.950  27.553  1.00  0.00     0.027 C 
ENDBRANCH  20  21
BRANCH  20  23
ATOM     23  C   UNL     1     -12.272 -18.478  24.428  1.00  0.00     0.116 C 
ATOM     24  C   UNL     1     -13.686 -18.184  23.946  1.00  0.00     0.027 C 
ENDBRANCH  20  23
ENDBRANCH   7  18
BRANCH   1  25
ATOM     25  C   UNL     1      -7.211 -20.798  23.223  1.00  0.00     0.085 C 
BRANCH  25  26
ATOM     26  C   UNL     1      -5.860 -20.964  23.940  1.00  0.00     0.012 C 
ATOM     27  C   UNL     1      -4.771 -20.055  23.388  1.00  0.00     0.005 C 
ENDBRANCH  25  26
ENDBRANCH   1  25
TORSDOF 5
ENDMDL
MODEL 6
REMARK VINA RESULT:    -8.597      2.579      4.875
REMARK INTER + INTRA:         -11.928
REMARK INTER:                 -11.496
REMARK INTRA:                  -0.432
REMARK UNBOUND:                -0.818
REMARK SMILES CCCN1C[C@H](C(=O)N(CC)CC)C=C2c3cccc4[nH]cc(c34)C[C@H]21
REMARK SMILES IDX 4 1 21 2 26 3 15 4 25 5 5 6 6 7 23 8 16 9 14 10 24 11 20 12
REMARK SMILES IDX 22 13 17 14 19 15 18 16 7 18 8 19 9 20 10 21 11 22 12 23
REMARK SMILES IDX 13 24 3 25 2 26 1 27
REMARK H PARENT 21 17
ROOT
ATOM      1  N   UNL     1     -12.959 -17.779  21.111  1.00  0.00    -0.295 NA
ATOM      2  N   UNL     1      -9.187 -19.739  25.409  1.00  0.00    -0.361 N 
ATOM      3  C   UNL     1     -11.719 -18.098  21.898  1.00  0.00     0.091 C 
ATOM      4  C   UNL     1     -10.650 -18.924  21.104  1.00  0.00    -0.026 C 
ATOM      5  C   UNL     1     -12.035 -18.613  23.351  1.00  0.00     0.061 C 
ATOM      6  C   UNL     1     -12.561 -17.274  19.778  1.00  0.00     0.102 C 
ATOM      7  C   UNL     1     -11.739 -18.281  18.953  1.00  0.00     0.116 C 
ATOM      8  C   UNL     1     -10.793 -19.057  24.039  1.00  0.00    -0.020 A 
ATOM      9  C   UNL     1      -9.528 -19.516  21.876  1.00  0.00    -0.011 A 
ATOM     10  C   UNL     1     -10.703 -19.021  19.759  1.00  0.00    -0.007 C 
ATOM     11  C   UNL     1      -9.691 -19.486  23.269  1.00  0.00     0.010 A 
ATOM     12  C   UNL     1      -8.702 -19.930  24.133  1.00  0.00     0.046 A 
ATOM     13  C   UNL     1     -10.460 -19.214  25.364  1.00  0.00     0.087 A 
ATOM     14  C   UNL     1      -8.321 -20.043  21.393  1.00  0.00     0.009 A 
ATOM     15  C   UNL     1      -7.495 -20.450  23.663  1.00  0.00     0.027 A 
ATOM     16  C   UNL     1      -7.330 -20.502  22.272  1.00  0.00     0.003 A 
ATOM     17  H   UNL     1      -8.685 -19.972  26.255  1.00  0.00     0.166 HD
ENDROOT
BRANCH   7  18
ATOM     18  C   UNL     1     -11.200 -17.614  17.673  1.00  0.00     0.230 C 
ATOM     19  O   UNL     1      -9.973 -17.471  17.575  1.00  0.00    -0.274 OA
ATOM     20  N   UNL     1     -12.040 -17.223  16.632  1.00  0.00    -0.343 N 
BRANCH  20  21
ATOM     21  C   UNL     1     -11.403 -16.713  15.414  1.00  0.00     0.116 C 
ATOM     22  C   UNL     1     -12.429 -16.169  14.431  1.00  0.00     0.027 C 
ENDBRANCH  20  21
BRANCH  20  23
ATOM     23  C   UNL     1     -13.505 -17.287  16.618  1.00  0.00     0.116 C 
ATOM     24  C   UNL     1     -14.021 -18.718  16.557  1.00  0.00     0.027 C 
ENDBRANCH  20  23
ENDBRANCH   7  18
BRANCH   1  25
ATOM     25  C   UNL     1     -13.914 -18.902  21.041  1.00  0.00     0.085 C 
BRANCH  25  26
ATOM     26  C   UNL     1     -15.398 -18.515  20.930  1.00  0.00     0.012 C 
ATOM     27  C   UNL     1     -16.121 -18.515  22.270  1.00  0.00     0.005 C 
ENDBRANCH  25  26
ENDBRANCH   1  25
TORSDOF 5
ENDMDL
MODEL 7
REMARK VINA RESULT:    -8.534      2.619      3.773
REMARK INTER + INTRA:         -11.847
REMARK INTER:                 -11.262
REMARK INTRA:                  -0.585
REMARK UNBOUND:                -0.818
REMARK SMILES CCCN1C[C@H](C(=O)N(CC)CC)C=C2c3cccc4[nH]cc(c34)C[C@H]21
REMARK SMILES IDX 4 1 21 2 26 3 15 4 25 5 5 6 6 7 23 8 16 9 14 10 24 11 20 12
REMARK SMILES IDX 22 13 17 14 19 15 18 16 7 18 8 19 9 20 10 21 11 22 12 23
REMARK SMILES IDX 13 24 3 25 2 26 1 27
REMARK H PARENT 21 17
ROOT
ATOM      1  N   UNL     1     -10.114 -19.660  20.340  1.00  0.00    -0.295 NA
ATOM      2  N   UNL     1     -11.110 -20.119  26.284  1.00  0.00    -0.361 N 
ATOM      3  C   UNL     1     -10.780 -19.833  21.675  1.00  0.00     0.091 C 
ATOM      4  C   UNL     1     -11.978 -18.856  21.926  1.00  0.00    -0.026 C 
ATOM      5  C   UNL     1      -9.750 -19.965  22.858  1.00  0.00     0.061 C 
ATOM      6  C   UNL     1     -11.157 -19.579  19.293  1.00  0.00     0.102 C 
ATOM      7  C   UNL     1     -12.131 -18.400  19.477  1.00  0.00     0.116 C 
ATOM      8  C   UNL     1     -10.448 -19.984  24.171  1.00  0.00    -0.020 A 
ATOM      9  C   UNL     1     -12.513 -18.766  23.309  1.00  0.00    -0.011 A 
ATOM     10  C   UNL     1     -12.555 -18.184  20.907  1.00  0.00    -0.007 C 
ATOM     11  C   UNL     1     -11.717 -19.376  24.289  1.00  0.00     0.010 A 
ATOM     12  C   UNL     1     -12.111 -19.446  25.617  1.00  0.00     0.046 A 
ATOM     13  C   UNL     1     -10.091 -20.446  25.416  1.00  0.00     0.087 A 
ATOM     14  C   UNL     1     -13.724 -18.204  23.739  1.00  0.00     0.009 A 
ATOM     15  C   UNL     1     -13.317 -18.895  26.054  1.00  0.00     0.027 A 
ATOM     16  C   UNL     1     -14.112 -18.266  25.085  1.00  0.00     0.003 A 
ATOM     17  H   UNL     1     -11.117 -20.322  27.274  1.00  0.00     0.166 HD
ENDROOT
BRANCH   7  18
ATOM     18  C   UNL     1     -13.293 -18.502  18.472  1.00  0.00     0.230 C 
ATOM     19  O   UNL     1     -14.199 -19.310  18.722  1.00  0.00    -0.274 OA
ATOM     20  N   UNL     1     -13.367 -17.690  17.341  1.00  0.00    -0.343 N 
BRANCH  20  21
ATOM     21  C   UNL     1     -14.580 -17.790  16.523  1.00  0.00     0.116 C 
ATOM     22  C   UNL     1     -15.335 -16.470  16.477  1.00  0.00     0.027 C 
ENDBRANCH  20  21
BRANCH  20  23
ATOM     23  C   UNL     1     -12.360 -16.725  16.889  1.00  0.00     0.116 C 
ATOM     24  C   UNL     1     -11.444 -17.303  15.819  1.00  0.00     0.027 C 
ENDBRANCH  20  23
ENDBRANCH   7  18
BRANCH   1  25
ATOM     25  C   UNL     1      -9.167 -18.528  20.299  1.00  0.00     0.085 C 
BRANCH  25  26
ATOM     26  C   UNL     1      -9.144 -17.719  18.991  1.00  0.00     0.012 C 
ATOM     27  C   UNL     1      -7.895 -16.863  18.836  1.00  0.00     0.005 C 
ENDBRANCH  25  26
ENDBRANCH   1  25
TORSDOF 5
ENDMDL
MODEL 8
REMARK VINA RESULT:    -8.324      3.454      8.337
REMARK INTER + INTRA:         -11.576
REMARK INTER:                 -10.773
REMARK INTRA:                  -0.803
REMARK UNBOUND:                -0.818
REMARK SMILES CCCN1C[C@H](C(=O)N(CC)CC)C=C2c3cccc4[nH]cc(c34)C[C@H]21
REMARK SMILES IDX 4 1 21 2 26 3 15 4 25 5 5 6 6 7 23 8 16 9 14 10 24 11 20 12
REMARK SMILES IDX 22 13 17 14 19 15 18 16 7 18 8 19 9 20 10 21 11 22 12 23
REMARK SMILES IDX 13 24 3 25 2 26 1 27
REMARK H PARENT 21 17
ROOT
ATOM      1  N   UNL     1     -14.848 -17.193  20.169  1.00  0.00    -0.295 NA
ATOM      2  N   UNL     1     -14.693 -15.462  14.380  1.00  0.00    -0.361 N 
ATOM      3  C   UNL     1     -14.535 -17.113  18.702  1.00  0.00     0.091 C 
ATOM      4  C   UNL     1     -13.004 -17.053  18.375  1.00  0.00    -0.026 C 
ATOM      5  C   UNL     1     -15.436 -16.069  17.942  1.00  0.00     0.061 C 
ATOM      6  C   UNL     1     -13.979 -18.218  20.787  1.00  0.00     0.102 C 
ATOM      7  C   UNL     1     -12.474 -17.919  20.653  1.00  0.00     0.116 C 
ATOM      8  C   UNL     1     -14.994 -15.915  16.531  1.00  0.00    -0.020 A 
ATOM      9  C   UNL     1     -12.613 -16.697  16.987  1.00  0.00    -0.011 A 
ATOM     10  C   UNL     1     -12.080 -17.392  19.298  1.00  0.00    -0.007 C 
ATOM     11  C   UNL     1     -13.655 -16.203  16.189  1.00  0.00     0.010 A 
ATOM     12  C   UNL     1     -13.472 -15.896  14.849  1.00  0.00     0.046 A 
ATOM     13  C   UNL     1     -15.624 -15.463  15.395  1.00  0.00     0.087 A 
ATOM     14  C   UNL     1     -11.361 -16.844  16.371  1.00  0.00     0.009 A 
ATOM     15  C   UNL     1     -12.232 -16.045  14.225  1.00  0.00     0.027 A 
ATOM     16  C   UNL     1     -11.179 -16.520  15.018  1.00  0.00     0.003 A 
ATOM     17  H   UNL     1     -14.870 -15.166  13.430  1.00  0.00     0.166 HD
ENDROOT
BRANCH   7  18
ATOM     18  C   UNL     1     -11.642 -19.120  21.141  1.00  0.00     0.230 C 
ATOM     19  O   UNL     1     -11.265 -19.939  20.291  1.00  0.00    -0.274 OA
ATOM     20  N   UNL     1     -11.275 -19.273  22.477  1.00  0.00    -0.343 N 
BRANCH  20  21
ATOM     21  C   UNL     1     -10.379 -20.388  22.802  1.00  0.00     0.116 C 
ATOM     22  C   UNL     1      -8.942 -19.921  22.976  1.00  0.00     0.027 C 
ENDBRANCH  20  21
BRANCH  20  23
ATOM     23  C   UNL     1     -11.677 -18.419  23.599  1.00  0.00     0.116 C 
ATOM     24  C   UNL     1     -12.137 -19.227  24.804  1.00  0.00     0.027 C 
ENDBRANCH  20  23
ENDBRANCH   7  18
BRANCH   1  25
ATOM     25  C   UNL     1     -14.778 -15.888  20.856  1.00  0.00     0.085 C 
BRANCH  25  26
ATOM     26  C   UNL     1     -15.971 -15.542  21.763  1.00  0.00     0.012 C 
ATOM     27  C   UNL     1     -17.076 -14.784  21.041  1.00  0.00     0.005 C 
ENDBRANCH  25  26
ENDBRANCH   1  25
TORSDOF 5
ENDMDL
MODEL 9
REMARK VINA RESULT:    -8.320      3.937      7.858
REMARK INTER + INTRA:         -11.570
REMARK INTER:                 -11.239
REMARK INTRA:                  -0.330
REMARK UNBOUND:                -0.818
REMARK SMILES CCCN1C[C@H](C(=O)N(CC)CC)C=C2c3cccc4[nH]cc(c34)C[C@H]21
REMARK SMILES IDX 4 1 21 2 26 3 15 4 25 5 5 6 6 7 23 8 16 9 14 10 24 11 20 12
REMARK SMILES IDX 22 13 17 14 19 15 18 16 7 18 8 19 9 20 10 21 11 22 12 23
REMARK SMILES IDX 13 24 3 25 2 26 1 27
REMARK H PARENT 21 17
ROOT
ATOM      1  N   UNL     1     -11.932 -18.470  18.567  1.00  0.00    -0.295 NA
ATOM      2  N   UNL     1     -12.986 -15.290  13.536  1.00  0.00    -0.361 N 
ATOM      3  C   UNL     1     -12.473 -17.465  17.590  1.00  0.00     0.091 C 
ATOM      4  C   UNL     1     -14.036 -17.454  17.480  1.00  0.00    -0.026 C 
ATOM      5  C   UNL     1     -11.694 -17.463  16.222  1.00  0.00     0.061 C 
ATOM      6  C   UNL     1     -12.702 -18.374  19.826  1.00  0.00     0.102 C 
ATOM      7  C   UNL     1     -14.206 -18.660  19.658  1.00  0.00     0.116 C 
ATOM      8  C   UNL     1     -12.352 -16.564  15.237  1.00  0.00    -0.020 A 
ATOM      9  C   UNL     1     -14.638 -16.697  16.353  1.00  0.00    -0.011 A 
ATOM     10  C   UNL     1     -14.805 -18.039  18.422  1.00  0.00    -0.007 C 
ATOM     11  C   UNL     1     -13.731 -16.290  15.364  1.00  0.00     0.010 A 
ATOM     12  C   UNL     1     -14.122 -15.512  14.285  1.00  0.00     0.046 A 
ATOM     13  C   UNL     1     -11.906 -15.929  14.102  1.00  0.00     0.087 A 
ATOM     14  C   UNL     1     -15.973 -16.299  16.188  1.00  0.00     0.009 A 
ATOM     15  C   UNL     1     -15.446 -15.105  14.114  1.00  0.00     0.027 A 
ATOM     16  C   UNL     1     -16.365 -15.522  15.088  1.00  0.00     0.003 A 
ATOM     17  H   UNL     1     -12.959 -14.750  12.682  1.00  0.00     0.166 HD
ENDROOT
BRANCH   7  18
ATOM     18  C   UNL     1     -14.962 -18.347  20.963  1.00  0.00     0.230 C 
ATOM     19  O   UNL     1     -15.557 -19.281  21.518  1.00  0.00    -0.274 OA
ATOM     20  N   UNL     1     -14.949 -17.079  21.540  1.00  0.00    -0.343 N 
BRANCH  20  21
ATOM     21  C   UNL     1     -15.601 -16.930  22.846  1.00  0.00     0.116 C 
ATOM     22  C   UNL     1     -14.654 -17.269  23.987  1.00  0.00     0.027 C 
ENDBRANCH  20  21
BRANCH  20  23
ATOM     23  C   UNL     1     -14.331 -15.870  20.985  1.00  0.00     0.116 C 
ATOM     24  C   UNL     1     -15.325 -15.018  20.208  1.00  0.00     0.027 C 
ENDBRANCH  20  23
ENDBRANCH   7  18
BRANCH   1  25
ATOM     25  C   UNL     1     -11.879 -19.843  18.027  1.00  0.00     0.085 C 
BRANCH  25  26
ATOM     26  C   UNL     1     -11.328 -20.918  18.978  1.00  0.00     0.012 C 
ATOM     27  C   UNL     1     -10.185 -20.419  19.852  1.00  0.00     0.005 C 
ENDBRANCH  25  26
ENDBRANCH   1  25
TORSDOF 5
ENDMDL
MODEL 10
REMARK VINA RESULT:    -8.279      2.264      4.661
REMARK INTER + INTRA:         -11.518
REMARK INTER:                 -10.757
REMARK INTRA:                  -0.761
REMARK UNBOUND:                -0.818
REMARK SMILES CCCN1C[C@H](C(=O)N(CC)CC)C=C2c3cccc4[nH]cc(c34)C[C@H]21
REMARK SMILES IDX 4 1 21 2 26 3 15 4 25 5 5 6 6 7 23 8 16 9 14 10 24 11 20 12
REMARK SMILES IDX 22 13 17 14 19 15 18 16 7 18 8 19 9 20 10 21 11 22 12 23
REMARK SMILES IDX 13 24 3 25 2 26 1 27
REMARK H PARENT 21 17
ROOT
ATOM      1  N   UNL     1     -12.499 -18.446  24.873  1.00  0.00    -0.295 NA
ATOM      2  N   UNL     1      -6.939 -20.761  25.391  1.00  0.00    -0.361 N 
ATOM      3  C   UNL     1     -11.043 -18.746  24.659  1.00  0.00     0.091 C 
ATOM      4  C   UNL     1     -10.685 -19.181  23.196  1.00  0.00    -0.026 C 
ATOM      5  C   UNL     1     -10.428 -19.635  25.803  1.00  0.00     0.061 C 
ATOM      6  C   UNL     1     -12.975 -17.582  23.770  1.00  0.00     0.102 C 
ATOM      7  C   UNL     1     -12.837 -18.222  22.376  1.00  0.00     0.116 C 
ATOM      8  C   UNL     1      -9.032 -20.031  25.477  1.00  0.00    -0.020 A 
ATOM      9  C   UNL     1      -9.337 -19.758  22.963  1.00  0.00    -0.011 A 
ATOM     10  C   UNL     1     -11.540 -18.962  22.175  1.00  0.00    -0.007 C 
ATOM     11  C   UNL     1      -8.626 -20.087  24.126  1.00  0.00     0.010 A 
ATOM     12  C   UNL     1      -7.325 -20.565  24.082  1.00  0.00     0.046 A 
ATOM     13  C   UNL     1      -7.971 -20.446  26.247  1.00  0.00     0.087 A 
ATOM     14  C   UNL     1      -8.676 -19.960  21.742  1.00  0.00     0.009 A 
ATOM     15  C   UNL     1      -6.657 -20.763  22.873  1.00  0.00     0.027 A 
ATOM     16  C   UNL     1      -7.365 -20.455  21.702  1.00  0.00     0.003 A 
ATOM     17  H   UNL     1      -6.034 -21.108  25.675  1.00  0.00     0.166 HD
ENDROOT
BRANCH   7  18
ATOM     18  C   UNL     1     -13.165 -17.194  21.277  1.00  0.00     0.230 C 
ATOM     19  O   UNL     1     -12.977 -15.997  21.538  1.00  0.00    -0.274 OA
ATOM     20  N   UNL     1     -13.612 -17.577  20.014  1.00  0.00    -0.343 N 
BRANCH  20  21
ATOM     21  C   UNL     1     -13.773 -16.518  19.011  1.00  0.00     0.116 C 
ATOM     22  C   UNL     1     -15.240 -16.268  18.692  1.00  0.00     0.027 C 
ENDBRANCH  20  21
BRANCH  20  23
ATOM     23  C   UNL     1     -13.922 -18.940  19.570  1.00  0.00     0.116 C 
ATOM     24  C   UNL     1     -12.810 -19.537  18.719  1.00  0.00     0.027 C 
ENDBRANCH  20  23
ENDBRANCH   7  18
BRANCH   1  25
ATOM     25  C   UNL     1     -13.326 -19.654  25.057  1.00  0.00     0.085 C 
BRANCH  25  26
ATOM     26  C   UNL     1     -13.816 -19.921  26.490  1.00  0.00     0.012 C 
ATOM     27  C   UNL     1     -13.629 -21.366  26.930  1.00  0.00     0.005 C 
ENDBRANCH  25  26
ENDBRANCH   1  25
TORSDOF 5
ENDMDL
MODEL 11
REMARK VINA RESULT:    -8.146      1.769      2.369
REMARK INTER + INTRA:         -11.346
REMARK INTER:                 -10.740
REMARK INTRA:                  -0.606
REMARK UNBOUND:                -0.818
REMARK SMILES CCCN1C[C@H](C(=O)N(CC)CC)C=C2c3cccc4[nH]cc(c34)C[C@H]21
REMARK SMILES IDX 4 1 21 2 26 3 15 4 25 5 5 6 6 7 23 8 16 9 14 10 24 11 20 12
REMARK SMILES IDX 22 13 17 14 19 15 18 16 7 18 8 19 9 20 10 21 11 22 12 23
REMARK SMILES IDX 13 24 3 25 2 26 1 27
REMARK H PARENT 21 17
ROOT
ATOM      1  N   UNL     1     -11.868 -18.911  19.323  1.00  0.00    -0.295 NA
ATOM      2  N   UNL     1      -7.536 -20.544  23.211  1.00  0.00    -0.361 N 
ATOM      3  C   UNL     1     -11.146 -19.425  20.537  1.00  0.00     0.091 C 
ATOM      4  C   UNL     1     -11.573 -18.735  21.877  1.00  0.00    -0.026 C 
ATOM      5  C   UNL     1      -9.596 -19.570  20.309  1.00  0.00     0.061 C 
ATOM      6  C   UNL     1     -13.315 -18.841  19.623  1.00  0.00     0.102 C 
ATOM      7  C   UNL     1     -13.662 -17.905  20.795  1.00  0.00     0.116 C 
ATOM      8  C   UNL     1      -8.905 -19.936  21.574  1.00  0.00    -0.020 A 
ATOM      9  C   UNL     1     -10.727 -18.979  23.074  1.00  0.00    -0.011 A 
ATOM     10  C   UNL     1     -12.711 -18.014  21.959  1.00  0.00    -0.007 C 
ATOM     11  C   UNL     1      -9.495 -19.594  22.810  1.00  0.00     0.010 A 
ATOM     12  C   UNL     1      -8.623 -19.957  23.825  1.00  0.00     0.046 A 
ATOM     13  C   UNL     1      -7.694 -20.531  21.843  1.00  0.00     0.087 A 
ATOM     14  C   UNL     1     -11.029 -18.723  24.420  1.00  0.00     0.009 A 
ATOM     15  C   UNL     1      -8.917 -19.713  25.167  1.00  0.00     0.027 A 
ATOM     16  C   UNL     1     -10.138 -19.082  25.441  1.00  0.00     0.003 A 
ATOM     17  H   UNL     1      -6.731 -20.910  23.700  1.00  0.00     0.166 HD
ENDROOT
BRANCH   7  18
ATOM     18  C   UNL     1     -15.151 -18.040  21.168  1.00  0.00     0.230 C 
ATOM     19  O   UNL     1     -15.616 -19.185  21.262  1.00  0.00    -0.274 OA
ATOM     20  N   UNL     1     -15.949 -16.932  21.442  1.00  0.00    -0.343 N 
BRANCH  20  21
ATOM     21  C   UNL     1     -17.316 -17.189  21.906  1.00  0.00     0.116 C 
ATOM     22  C   UNL     1     -18.204 -15.964  21.740  1.00  0.00     0.027 C 
ENDBRANCH  20  21
BRANCH  20  23
ATOM     23  C   UNL     1     -15.558 -15.522  21.332  1.00  0.00     0.116 C 
ATOM     24  C   UNL     1     -15.361 -15.088  19.887  1.00  0.00     0.027 C 
ENDBRANCH  20  23
ENDBRANCH   7  18
BRANCH   1  25
ATOM     25  C   UNL     1     -11.323 -17.638  18.813  1.00  0.00     0.085 C 
BRANCH  25  26
ATOM     26  C   UNL     1     -11.002 -17.600  17.309  1.00  0.00     0.012 C 
ATOM     27  C   UNL     1     -12.216 -17.292  16.443  1.00  0.00     0.005 C 
ENDBRANCH  25  26
ENDBRANCH   1  25
TORSDOF 5
ENDMDL
MODEL 12
REMARK VINA RESULT:    -8.127      3.019      8.176
REMARK INTER + INTRA:         -11.321
REMARK INTER:                 -10.659
REMARK INTRA:                  -0.661
REMARK UNBOUND:                -0.818
REMARK SMILES CCCN1C[C@H](C(=O)N(CC)CC)C=C2c3cccc4[nH]cc(c34)C[C@H]21
REMARK SMILES IDX 4 1 21 2 26 3 15 4 25 5 5 6 6 7 23 8 16 9 14 10 24 11 20 12
REMARK SMILES IDX 22 13 17 14 19 15 18 16 7 18 8 19 9 20 10 21 11 22 12 23
REMARK SMILES IDX 13 24 3 25 2 26 1 27
REMARK H PARENT 21 17
ROOT
ATOM      1  N   UNL     1     -12.396 -16.718  18.548  1.00  0.00    -0.295 NA
ATOM      2  N   UNL     1     -16.820 -12.688  17.698  1.00  0.00    -0.361 N 
ATOM      3  C   UNL     1     -13.439 -15.662  18.776  1.00  0.00     0.091 C 
ATOM      4  C   UNL     1     -14.486 -16.021  19.885  1.00  0.00    -0.026 C 
ATOM      5  C   UNL     1     -14.036 -15.095  17.434  1.00  0.00     0.061 C 
ATOM      6  C   UNL     1     -11.873 -17.163  19.860  1.00  0.00     0.102 C 
ATOM      7  C   UNL     1     -12.947 -17.767  20.784  1.00  0.00     0.116 C 
ATOM      8  C   UNL     1     -15.165 -14.165  17.706  1.00  0.00    -0.020 A 
ATOM      9  C   UNL     1     -15.700 -15.172  19.984  1.00  0.00    -0.011 A 
ATOM     10  C   UNL     1     -14.251 -17.014  20.769  1.00  0.00    -0.007 C 
ATOM     11  C   UNL     1     -15.897 -14.297  18.905  1.00  0.00     0.010 A 
ATOM     12  C   UNL     1     -16.942 -13.385  18.881  1.00  0.00     0.046 A 
ATOM     13  C   UNL     1     -15.747 -13.158  16.973  1.00  0.00     0.087 A 
ATOM     14  C   UNL     1     -16.628 -15.099  21.033  1.00  0.00     0.009 A 
ATOM     15  C   UNL     1     -17.867 -13.301  19.922  1.00  0.00     0.027 A 
ATOM     16  C   UNL     1     -17.690 -14.183  20.997  1.00  0.00     0.003 A 
ATOM     17  H   UNL     1     -17.445 -11.952  17.399  1.00  0.00     0.166 HD
ENDROOT
BRANCH   7  18
ATOM     18  C   UNL     1     -12.367 -18.019  22.188  1.00  0.00     0.230 C 
ATOM     19  O   UNL     1     -12.714 -17.252  23.097  1.00  0.00    -0.274 OA
ATOM     20  N   UNL     1     -11.520 -19.092  22.458  1.00  0.00    -0.343 N 
BRANCH  20  21
ATOM     21  C   UNL     1     -11.130 -19.302  23.857  1.00  0.00     0.116 C 
ATOM     22  C   UNL     1     -10.944 -20.779  24.171  1.00  0.00     0.027 C 
ENDBRANCH  20  21
BRANCH  20  23
ATOM     23  C   UNL     1     -10.987 -20.054  21.487  1.00  0.00     0.116 C 
ATOM     24  C   UNL     1      -9.571 -19.708  21.049  1.00  0.00     0.027 C 
ENDBRANCH  20  23
ENDBRANCH   7  18
BRANCH   1  25
ATOM     25  C   UNL     1     -12.867 -17.836  17.707  1.00  0.00     0.085 C 
BRANCH  25  26
ATOM     26  C   UNL     1     -11.938 -18.243  16.550  1.00  0.00     0.012 C 
ATOM     27  C   UNL     1     -11.472 -17.062  15.710  1.00  0.00     0.005 C 
ENDBRANCH  25  26
ENDBRANCH   1  25
TORSDOF 5
ENDMDL
MODEL 13
REMARK VINA RESULT:    -8.076      3.057      5.742
REMARK INTER + INTRA:         -11.256
REMARK INTER:                 -10.550
REMARK INTRA:                  -0.706
REMARK UNBOUND:                -0.818
REMARK SMILES CCCN1C[C@H](C(=O)N(CC)CC)C=C2c3cccc4[nH]cc(c34)C[C@H]21
REMARK SMILES IDX 4 1 21 2 26 3 15 4 25 5 5 6 6 7 23 8 16 9 14 10 24 11 20 12
REMARK SMILES IDX 22 13 17 14 19 15 18 16 7 18 8 19 9 20 10 21 11 22 12 23
REMARK SMILES IDX 13 24 3 25 2 26 1 27
REMARK H PARENT 21 17
ROOT
ATOM      1  N   UNL     1     -14.355 -16.597  21.391  1.00  0.00    -0.295 NA
ATOM      2  N   UNL     1     -12.722 -19.052  26.668  1.00  0.00    -0.361 N 
ATOM      3  C   UNL     1     -13.546 -17.179  22.515  1.00  0.00     0.091 C 
ATOM      4  C   UNL     1     -12.643 -18.389  22.097  1.00  0.00    -0.026 C 
ATOM      5  C   UNL     1     -14.385 -17.378  23.832  1.00  0.00     0.061 C 
ATOM      6  C   UNL     1     -13.477 -16.417  20.214  1.00  0.00     0.102 C 
ATOM      7  C   UNL     1     -12.850 -17.726  19.700  1.00  0.00     0.116 C 
ATOM      8  C   UNL     1     -13.589 -18.091  24.866  1.00  0.00    -0.020 A 
ATOM      9  C   UNL     1     -12.027 -19.193  23.183  1.00  0.00    -0.011 A 
ATOM     10  C   UNL     1     -12.370 -18.639  20.799  1.00  0.00    -0.007 C 
ATOM     11  C   UNL     1     -12.531 -18.935  24.466  1.00  0.00     0.010 A 
ATOM     12  C   UNL     1     -12.010 -19.547  25.596  1.00  0.00     0.046 A 
ATOM     13  C   UNL     1     -13.688 -18.170  26.236  1.00  0.00     0.087 A 
ATOM     14  C   UNL     1     -10.982 -20.125  23.091  1.00  0.00     0.009 A 
ATOM     15  C   UNL     1     -10.967 -20.470  25.516  1.00  0.00     0.027 A 
ATOM     16  C   UNL     1     -10.468 -20.750  24.236  1.00  0.00     0.003 A 
ATOM     17  H   UNL     1     -12.566 -19.317  27.631  1.00  0.00     0.166 HD
ENDROOT
BRANCH   7  18
ATOM     18  C   UNL     1     -11.804 -17.430  18.610  1.00  0.00     0.230 C 
ATOM     19  O   UNL     1     -10.611 -17.420  18.947  1.00  0.00    -0.274 OA
ATOM     20  N   UNL     1     -12.160 -17.225  17.278  1.00  0.00    -0.343 N 
BRANCH  20  21
ATOM     21  C   UNL     1     -11.069 -17.073  16.309  1.00  0.00     0.116 C 
ATOM     22  C   UNL     1     -11.520 -16.306  15.074  1.00  0.00     0.027 C 
ENDBRANCH  20  21
BRANCH  20  23
ATOM     23  C   UNL     1     -13.521 -17.163  16.735  1.00  0.00     0.116 C 
ATOM     24  C   UNL     1     -14.129 -18.545  16.542  1.00  0.00     0.027 C 
ENDBRANCH  20  23
ENDBRANCH   7  18
BRANCH   1  25
ATOM     25  C   UNL     1     -15.575 -17.370  21.087  1.00  0.00     0.085 C 
BRANCH  25  26
ATOM     26  C   UNL     1     -16.908 -16.682  21.427  1.00  0.00     0.012 C 
ATOM     27  C   UNL     1     -16.823 -15.162  21.406  1.00  0.00     0.005 C 
ENDBRANCH  25  26
ENDBRANCH   1  25
TORSDOF 5
ENDMDL
MODEL 14
REMARK VINA RESULT:    -8.035      2.552      8.693
REMARK INTER + INTRA:         -11.203
REMARK INTER:                 -10.412
REMARK INTRA:                  -0.791
REMARK UNBOUND:                -0.818
REMARK SMILES CCCN1C[C@H](C(=O)N(CC)CC)C=C2c3cccc4[nH]cc(c34)C[C@H]21
REMARK SMILES IDX 4 1 21 2 26 3 15 4 25 5 5 6 6 7 23 8 16 9 14 10 24 11 20 12
REMARK SMILES IDX 22 13 17 14 19 15 18 16 7 18 8 19 9 20 10 21 11 22 12 23
REMARK SMILES IDX 13 24 3 25 2 26 1 27
REMARK H PARENT 21 17
ROOT
ATOM      1  N   UNL     1     -14.910 -17.637  22.175  1.00  0.00    -0.295 NA
ATOM      2  N   UNL     1     -17.630 -13.442  18.778  1.00  0.00    -0.361 N 
ATOM      3  C   UNL     1     -15.347 -16.795  21.011  1.00  0.00     0.091 C 
ATOM      4  C   UNL     1     -14.168 -16.147  20.208  1.00  0.00    -0.026 C 
ATOM      5  C   UNL     1     -16.537 -15.829  21.371  1.00  0.00     0.061 C 
ATOM      6  C   UNL     1     -13.816 -18.531  21.732  1.00  0.00     0.102 C 
ATOM      7  C   UNL     1     -12.574 -17.782  21.213  1.00  0.00     0.116 C 
ATOM      8  C   UNL     1     -16.838 -14.912  20.239  1.00  0.00    -0.020 A 
ATOM      9  C   UNL     1     -14.509 -15.089  19.223  1.00  0.00    -0.011 A 
ATOM     10  C   UNL     1     -12.902 -16.594  20.346  1.00  0.00    -0.007 C 
ATOM     11  C   UNL     1     -15.823 -14.605  19.308  1.00  0.00     0.010 A 
ATOM     12  C   UNL     1     -16.320 -13.670  18.413  1.00  0.00     0.046 A 
ATOM     13  C   UNL     1     -17.954 -14.188  19.890  1.00  0.00     0.087 A 
ATOM     14  C   UNL     1     -13.707 -14.560  18.201  1.00  0.00     0.009 A 
ATOM     15  C   UNL     1     -15.533 -13.143  17.388  1.00  0.00     0.027 A 
ATOM     16  C   UNL     1     -14.212 -13.605  17.306  1.00  0.00     0.003 A 
ATOM     17  H   UNL     1     -18.254 -12.802  18.306  1.00  0.00     0.166 HD
ENDROOT
BRANCH   7  18
ATOM     18  C   UNL     1     -11.570 -18.772  20.592  1.00  0.00     0.230 C 
ATOM     19  O   UNL     1     -11.643 -18.971  19.371  1.00  0.00    -0.274 OA
ATOM     20  N   UNL     1     -10.580 -19.394  21.349  1.00  0.00    -0.343 N 
BRANCH  20  21
ATOM     21  C   UNL     1      -9.605 -20.220  20.628  1.00  0.00     0.116 C 
ATOM     22  C   UNL     1      -8.206 -20.070  21.207  1.00  0.00     0.027 C 
ENDBRANCH  20  21
BRANCH  20  23
ATOM     23  C   UNL     1     -10.394 -19.294  22.801  1.00  0.00     0.116 C 
ATOM     24  C   UNL     1     -11.071 -20.433  23.549  1.00  0.00     0.027 C 
ENDBRANCH  20  23
ENDBRANCH   7  18
BRANCH   1  25
ATOM     25  C   UNL     1     -14.560 -16.848  23.372  1.00  0.00     0.085 C 
BRANCH  25  26
ATOM     26  C   UNL     1     -13.707 -17.571  24.428  1.00  0.00     0.012 C 
ATOM     27  C   UNL     1     -14.501 -17.995  25.655  1.00  0.00     0.005 C 
ENDBRANCH  25  26
ENDBRANCH   1  25
TORSDOF 5
ENDMDL
MODEL 15
REMARK VINA RESULT:    -8.014      5.097      7.949
REMARK INTER + INTRA:         -11.174
REMARK INTER:                 -10.328
REMARK INTRA:                  -0.846
REMARK UNBOUND:                -0.818
REMARK SMILES CCCN1C[C@H](C(=O)N(CC)CC)C=C2c3cccc4[nH]cc(c34)C[C@H]21
REMARK SMILES IDX 4 1 21 2 26 3 15 4 25 5 5 6 6 7 23 8 16 9 14 10 24 11 20 12
REMARK SMILES IDX 22 13 17 14 19 15 18 16 7 18 8 19 9 20 10 21 11 22 12 23
REMARK SMILES IDX 13 24 3 25 2 26 1 27
REMARK H PARENT 21 17
ROOT
ATOM      1  N   UNL     1     -14.182 -16.267  16.148  1.00  0.00    -0.295 NA
ATOM      2  N   UNL     1     -13.063 -17.309  21.996  1.00  0.00    -0.361 N 
ATOM      3  C   UNL     1     -14.344 -16.602  17.603  1.00  0.00     0.091 C 
ATOM      4  C   UNL     1     -15.418 -15.736  18.345  1.00  0.00    -0.026 C 
ATOM      5  C   UNL     1     -12.967 -16.763  18.348  1.00  0.00     0.061 C 
ATOM      6  C   UNL     1     -15.523 -16.169  15.529  1.00  0.00     0.102 C 
ATOM      7  C   UNL     1     -16.417 -15.082  16.155  1.00  0.00     0.116 C 
ATOM      8  C   UNL     1     -13.171 -16.946  19.810  1.00  0.00    -0.020 A 
ATOM      9  C   UNL     1     -15.449 -15.805  19.829  1.00  0.00    -0.011 A 
ATOM     10  C   UNL     1     -16.334 -15.021  17.658  1.00  0.00    -0.007 C 
ATOM     11  C   UNL     1     -14.344 -16.440  20.413  1.00  0.00     0.010 A 
ATOM     12  C   UNL     1     -14.256 -16.653  21.780  1.00  0.00     0.046 A 
ATOM     13  C   UNL     1     -12.393 -17.487  20.806  1.00  0.00     0.087 A 
ATOM     14  C   UNL     1     -16.459 -15.368  20.699  1.00  0.00     0.009 A 
ATOM     15  C   UNL     1     -15.258 -16.228  22.654  1.00  0.00     0.027 A 
ATOM     16  C   UNL     1     -16.359 -15.574  22.083  1.00  0.00     0.003 A 
ATOM     17  H   UNL     1     -12.723 -17.598  22.902  1.00  0.00     0.166 HD
ENDROOT
BRANCH   7  18
ATOM     18  C   UNL     1     -17.849 -15.177  15.595  1.00  0.00     0.230 C 
ATOM     19  O   UNL     1     -18.620 -15.988  16.129  1.00  0.00    -0.274 OA
ATOM     20  N   UNL     1     -18.296 -14.358  14.561  1.00  0.00    -0.343 N 
BRANCH  20  21
ATOM     21  C   UNL     1     -19.713 -14.452  14.195  1.00  0.00     0.116 C 
ATOM     22  C   UNL     1     -20.204 -13.181  13.519  1.00  0.00     0.027 C 
ENDBRANCH  20  21
BRANCH  20  23
ATOM     23  C   UNL     1     -17.497 -13.388  13.804  1.00  0.00     0.116 C 
ATOM     24  C   UNL     1     -16.694 -14.045  12.690  1.00  0.00     0.027 C 
ENDBRANCH  20  23
ENDBRANCH   7  18
BRANCH   1  25
ATOM     25  C   UNL     1     -13.349 -15.073  15.909  1.00  0.00     0.085 C 
BRANCH  25  26
ATOM     26  C   UNL     1     -12.227 -15.233  14.869  1.00  0.00     0.012 C 
ATOM     27  C   UNL     1     -11.435 -16.523  15.034  1.00  0.00     0.005 C 
ENDBRANCH  25  26
ENDBRANCH   1  25
TORSDOF 5
ENDMDL
MODEL 16
REMARK VINA RESULT:    -7.978      3.918      7.114
REMARK INTER + INTRA:         -11.128
REMARK INTER:                 -10.755
REMARK INTRA:                  -0.374
REMARK UNBOUND:                -0.818
REMARK SMILES CCCN1C[C@H](C(=O)N(CC)CC)C=C2c3cccc4[nH]cc(c34)C[C@H]21
REMARK SMILES IDX 4 1 21 2 26 3 15 4 25 5 5 6 6 7 23 8 16 9 14 10 24 11 20 12
REMARK SMILES IDX 22 13 17 14 19 15 18 16 7 18 8 19 9 20 10 21 11 22 12 23
REMARK SMILES IDX 13 24 3 25 2 26 1 27
REMARK H PARENT 21 17
ROOT
ATOM      1  N   UNL     1     -15.719 -14.804  20.092  1.00  0.00    -0.295 NA
ATOM      2  N   UNL     1     -13.019 -17.982  24.468  1.00  0.00    -0.361 N 
ATOM      3  C   UNL     1     -14.692 -15.522  20.920  1.00  0.00     0.091 C 
ATOM      4  C   UNL     1     -13.893 -16.621  20.140  1.00  0.00    -0.026 C 
ATOM      5  C   UNL     1     -15.239 -15.952  22.332  1.00  0.00     0.061 C 
ATOM      6  C   UNL     1     -15.105 -14.413  18.803  1.00  0.00     0.102 C 
ATOM      7  C   UNL     1     -14.594 -15.605  17.972  1.00  0.00     0.116 C 
ATOM      8  C   UNL     1     -14.244 -16.786  23.057  1.00  0.00    -0.020 A 
ATOM      9  C   UNL     1     -13.062 -17.560  20.937  1.00  0.00    -0.011 A 
ATOM     10  C   UNL     1     -13.894 -16.658  18.791  1.00  0.00    -0.007 C 
ATOM     11  C   UNL     1     -13.289 -17.521  22.320  1.00  0.00     0.010 A 
ATOM     12  C   UNL     1     -12.544 -18.280  23.209  1.00  0.00     0.046 A 
ATOM     13  C   UNL     1     -14.056 -17.079  24.387  1.00  0.00     0.087 A 
ATOM     14  C   UNL     1     -12.057 -18.429  20.487  1.00  0.00     0.009 A 
ATOM     15  C   UNL     1     -11.537 -19.143  22.772  1.00  0.00     0.027 A 
ATOM     16  C   UNL     1     -11.315 -19.205  21.389  1.00  0.00     0.003 A 
ATOM     17  H   UNL     1     -12.666 -18.386  25.325  1.00  0.00     0.166 HD
ENDROOT
BRANCH   7  18
ATOM     18  C   UNL     1     -13.798 -15.107  16.751  1.00  0.00     0.230 C 
ATOM     19  O   UNL     1     -13.840 -13.895  16.496  1.00  0.00    -0.274 OA
ATOM     20  N   UNL     1     -13.015 -15.963  15.979  1.00  0.00    -0.343 N 
BRANCH  20  21
ATOM     21  C   UNL     1     -12.205 -15.355  14.918  1.00  0.00     0.116 C 
ATOM     22  C   UNL     1     -12.704 -15.751  13.536  1.00  0.00     0.027 C 
ENDBRANCH  20  21
BRANCH  20  23
ATOM     23  C   UNL     1     -12.898 -17.417  16.128  1.00  0.00     0.116 C 
ATOM     24  C   UNL     1     -11.468 -17.856  16.409  1.00  0.00     0.027 C 
ENDBRANCH  20  23
ENDBRANCH   7  18
BRANCH   1  25
ATOM     25  C   UNL     1     -16.973 -15.563  19.925  1.00  0.00     0.085 C 
BRANCH  25  26
ATOM     26  C   UNL     1     -18.249 -14.722  19.750  1.00  0.00     0.012 C 
ATOM     27  C   UNL     1     -18.185 -13.377  20.460  1.00  0.00     0.005 C 
ENDBRANCH  25  26
ENDBRANCH   1  25
TORSDOF 5
ENDMDL
MODEL 17
REMARK VINA RESULT:    -7.959      4.071      6.276
REMARK INTER + INTRA:         -11.104
REMARK INTER:                 -10.229
REMARK INTRA:                  -0.875
REMARK UNBOUND:                -0.818
REMARK SMILES CCCN1C[C@H](C(=O)N(CC)CC)C=C2c3cccc4[nH]cc(c34)C[C@H]21
REMARK SMILES IDX 4 1 21 2 26 3 15 4 25 5 5 6 6 7 23 8 16 9 14 10 24 11 20 12
REMARK SMILES IDX 22 13 17 14 19 15 18 16 7 18 8 19 9 20 10 21 11 22 12 23
REMARK SMILES IDX 13 24 3 25 2 26 1 27
REMARK H PARENT 21 17
ROOT
ATOM      1  N   UNL     1     -12.954 -17.629  16.661  1.00  0.00    -0.295 NA
ATOM      2  N   UNL     1     -11.923 -18.732  22.514  1.00  0.00    -0.361 N 
ATOM      3  C   UNL     1     -13.142 -17.866  18.132  1.00  0.00     0.091 C 
ATOM      4  C   UNL     1     -13.940 -16.737  18.868  1.00  0.00    -0.026 C 
ATOM      5  C   UNL     1     -11.822 -18.343  18.847  1.00  0.00     0.061 C 
ATOM      6  C   UNL     1     -14.249 -17.219  16.075  1.00  0.00     0.102 C 
ATOM      7  C   UNL     1     -14.822 -15.924  16.680  1.00  0.00     0.116 C 
ATOM      8  C   UNL     1     -12.014 -18.422  20.319  1.00  0.00    -0.020 A 
ATOM      9  C   UNL     1     -13.935 -16.749  20.353  1.00  0.00    -0.011 A 
ATOM     10  C   UNL     1     -14.673 -15.838  18.177  1.00  0.00    -0.007 C 
ATOM     11  C   UNL     1     -13.002 -17.621  20.933  1.00  0.00     0.010 A 
ATOM     12  C   UNL     1     -12.922 -17.805  22.305  1.00  0.00     0.046 A 
ATOM     13  C   UNL     1     -11.360 -19.109  21.315  1.00  0.00     0.087 A 
ATOM     14  C   UNL     1     -14.773 -16.047  21.232  1.00  0.00     0.009 A 
ATOM     15  C   UNL     1     -13.755 -17.116  23.187  1.00  0.00     0.027 A 
ATOM     16  C   UNL     1     -14.679 -16.227  22.620  1.00  0.00     0.003 A 
ATOM     17  H   UNL     1     -11.634 -19.067  23.423  1.00  0.00     0.166 HD
ENDROOT
BRANCH   7  18
ATOM     18  C   UNL     1     -16.252 -15.676  16.163  1.00  0.00     0.230 C 
ATOM     19  O   UNL     1     -16.911 -16.663  15.806  1.00  0.00    -0.274 OA
ATOM     20  N   UNL     1     -16.818 -14.403  16.135  1.00  0.00    -0.343 N 
BRANCH  20  21
ATOM     21  C   UNL     1     -18.227 -14.306  15.739  1.00  0.00     0.116 C 
ATOM     22  C   UNL     1     -18.406 -13.415  14.518  1.00  0.00     0.027 C 
ENDBRANCH  20  21
BRANCH  20  23
ATOM     23  C   UNL     1     -16.156 -13.141  16.481  1.00  0.00     0.116 C 
ATOM     24  C   UNL     1     -16.604 -12.605  17.833  1.00  0.00     0.027 C 
ENDBRANCH  20  23
ENDBRANCH   7  18
BRANCH   1  25
ATOM     25  C   UNL     1     -11.858 -16.689  16.354  1.00  0.00     0.085 C 
BRANCH  25  26
ATOM     26  C   UNL     1     -11.489 -16.550  14.867  1.00  0.00     0.012 C 
ATOM     27  C   UNL     1     -11.806 -15.175  14.295  1.00  0.00     0.005 C 
ENDBRANCH  25  26
ENDBRANCH   1  25
TORSDOF 5
ENDMDL
MODEL 18
REMARK VINA RESULT:    -7.933      2.894      7.656
REMARK INTER + INTRA:         -11.071
REMARK INTER:                 -10.497
REMARK INTRA:                  -0.573
REMARK UNBOUND:                -0.818
REMARK SMILES CCCN1C[C@H](C(=O)N(CC)CC)C=C2c3cccc4[nH]cc(c34)C[C@H]21
REMARK SMILES IDX 4 1 21 2 26 3 15 4 25 5 5 6 6 7 23 8 16 9 14 10 24 11 20 12
REMARK SMILES IDX 22 13 17 14 19 15 18 16 7 18 8 19 9 20 10 21 11 22 12 23
REMARK SMILES IDX 13 24 3 25 2 26 1 27
REMARK H PARENT 21 17
ROOT
ATOM      1  N   UNL     1     -11.895 -18.094  19.528  1.00  0.00    -0.295 NA
ATOM      2  N   UNL     1     -15.355 -13.926  16.845  1.00  0.00    -0.361 N 
ATOM      3  C   UNL     1     -12.734 -16.875  19.267  1.00  0.00     0.091 C 
ATOM      4  C   UNL     1     -13.937 -16.701  20.256  1.00  0.00    -0.026 C 
ATOM      5  C   UNL     1     -13.072 -16.682  17.742  1.00  0.00     0.061 C 
ATOM      6  C   UNL     1     -11.603 -18.171  20.977  1.00  0.00     0.102 C 
ATOM      7  C   UNL     1     -12.860 -18.281  21.859  1.00  0.00     0.116 C 
ATOM      8  C   UNL     1     -14.023 -15.556  17.547  1.00  0.00    -0.020 A 
ATOM      9  C   UNL     1     -14.969 -15.691  19.909  1.00  0.00    -0.011 A 
ATOM     10  C   UNL     1     -13.988 -17.384  21.419  1.00  0.00    -0.007 C 
ATOM     11  C   UNL     1     -14.885 -15.187  18.603  1.00  0.00     0.010 A 
ATOM     12  C   UNL     1     -15.727 -14.184  18.147  1.00  0.00     0.046 A 
ATOM     13  C   UNL     1     -14.324 -14.758  16.468  1.00  0.00     0.087 A 
ATOM     14  C   UNL     1     -15.968 -15.149  20.731  1.00  0.00     0.009 A 
ATOM     15  C   UNL     1     -16.720 -13.634  18.959  1.00  0.00     0.027 A 
ATOM     16  C   UNL     1     -16.825 -14.144  20.261  1.00  0.00     0.003 A 
ATOM     17  H   UNL     1     -15.793 -13.238  16.249  1.00  0.00     0.166 HD
ENDROOT
BRANCH   7  18
ATOM     18  C   UNL     1     -12.485 -18.157  23.347  1.00  0.00     0.230 C 
ATOM     19  O   UNL     1     -12.871 -17.146  23.953  1.00  0.00    -0.274 OA
ATOM     20  N   UNL     1     -11.780 -19.154  24.019  1.00  0.00    -0.343 N 
BRANCH  20  21
ATOM     21  C   UNL     1     -11.588 -18.981  25.463  1.00  0.00     0.116 C 
ATOM     22  C   UNL     1     -12.494 -19.905  26.263  1.00  0.00     0.027 C 
ENDBRANCH  20  21
BRANCH  20  23
ATOM     23  C   UNL     1     -11.222 -20.377  23.434  1.00  0.00     0.116 C 
ATOM     24  C   UNL     1      -9.713 -20.466  23.613  1.00  0.00     0.027 C 
ENDBRANCH  20  23
ENDBRANCH   7  18
BRANCH   1  25
ATOM     25  C   UNL     1     -12.483 -19.336  18.992  1.00  0.00     0.085 C 
BRANCH  25  26
ATOM     26  C   UNL     1     -11.483 -20.385  18.475  1.00  0.00     0.012 C 
ATOM     27  C   UNL     1     -10.838 -21.200  19.588  1.00  0.00     0.005 C 
ENDBRANCH  25  26
ENDBRANCH   1  25
TORSDOF 5
ENDMDL
MODEL 19
REMARK VINA RESULT:    -7.898      2.527      4.278
REMARK INTER + INTRA:         -11.025
REMARK INTER:                 -10.749
REMARK INTRA:                  -0.276
REMARK UNBOUND:                -0.818
REMARK SMILES CCCN1C[C@H](C(=O)N(CC)CC)C=C2c3cccc4[nH]cc(c34)C[C@H]21
REMARK SMILES IDX 4 1 21 2 26 3 15 4 25 5 5 6 6 7 23 8 16 9 14 10 24 11 20 12
REMARK SMILES IDX 22 13 17 14 19 15 18 16 7 18 8 19 9 20 10 21 11 22 12 23
REMARK SMILES IDX 13 24 3 25 2 26 1 27
REMARK H PARENT 21 17
ROOT
ATOM      1  N   UNL     1      -9.705 -20.153  21.018  1.00  0.00    -0.295 NA
ATOM      2  N   UNL     1     -12.489 -19.822  26.373  1.00  0.00    -0.361 N 
ATOM      3  C   UNL     1     -10.753 -20.025  22.086  1.00  0.00     0.091 C 
ATOM      4  C   UNL     1     -11.641 -18.739  21.962  1.00  0.00    -0.026 C 
ATOM      5  C   UNL     1     -10.199 -20.334  23.526  1.00  0.00     0.061 C 
ATOM      6  C   UNL     1     -10.326 -19.878  19.703  1.00  0.00     0.102 C 
ATOM      7  C   UNL     1     -10.932 -18.467  19.586  1.00  0.00     0.116 C 
ATOM      8  C   UNL     1     -11.227 -20.051  24.563  1.00  0.00    -0.020 A 
ATOM      9  C   UNL     1     -12.509 -18.392  23.117  1.00  0.00    -0.011 A 
ATOM     10  C   UNL     1     -11.677 -18.024  20.819  1.00  0.00    -0.007 C 
ATOM     11  C   UNL     1     -12.245 -19.112  24.291  1.00  0.00     0.010 A 
ATOM     12  C   UNL     1     -13.014 -18.960  25.435  1.00  0.00     0.046 A 
ATOM     13  C   UNL     1     -11.398 -20.486  25.857  1.00  0.00     0.087 A 
ATOM     14  C   UNL     1     -13.579 -17.486  23.159  1.00  0.00     0.009 A 
ATOM     15  C   UNL     1     -14.085 -18.066  25.485  1.00  0.00     0.027 A 
ATOM     16  C   UNL     1     -14.346 -17.327  24.323  1.00  0.00     0.003 A 
ATOM     17  H   UNL     1     -12.844 -19.932  27.313  1.00  0.00     0.166 HD
ENDROOT
BRANCH   7  18
ATOM     18  C   UNL     1     -11.726 -18.331  18.273  1.00  0.00     0.230 C 
ATOM     19  O   UNL     1     -11.175 -17.747  17.329  1.00  0.00    -0.274 OA
ATOM     20  N   UNL     1     -12.998 -18.878  18.117  1.00  0.00    -0.343 N 
BRANCH  20  21
ATOM     21  C   UNL     1     -13.605 -18.792  16.785  1.00  0.00     0.116 C 
ATOM     22  C   UNL     1     -14.396 -17.504  16.612  1.00  0.00     0.027 C 
ENDBRANCH  20  21
BRANCH  20  23
ATOM     23  C   UNL     1     -13.793 -19.554  19.147  1.00  0.00     0.116 C 
ATOM     24  C   UNL     1     -14.826 -18.631  19.778  1.00  0.00     0.027 C 
ENDBRANCH  20  23
ENDBRANCH   7  18
BRANCH   1  25
ATOM     25  C   UNL     1      -8.506 -19.331  21.272  1.00  0.00     0.085 C 
BRANCH  25  26
ATOM     26  C   UNL     1      -7.190 -20.103  21.467  1.00  0.00     0.012 C 
ATOM     27  C   UNL     1      -6.173 -19.355  22.317  1.00  0.00     0.005 C 
ENDBRANCH  25  26
ENDBRANCH   1  25
TORSDOF 5
ENDMDL
