MODEL 1
REMARK VINA RESULT:    -7.976      0.000      0.000
REMARK INTER + INTRA:         -11.230
REMARK INTER:                 -10.307
REMARK INTRA:                  -0.922
REMARK UNBOUND:                -0.922
REMARK SMILES CCCN1C[C@H](C(=O)N(CC)CC)C=C2c3cccc4[nH]cc(c34)C[C@H]21
REMARK SMILES IDX 4 1 21 2 26 3 15 4 25 5 5 6 6 7 23 8 16 9 14 10 24 11 20 12
REMARK SMILES IDX 22 13 17 14 19 15 18 16 7 18 8 19 9 20 10 21 11 22 12 23
REMARK SMILES IDX 13 24 3 25 2 26 1 27
REMARK H PARENT 21 17
ROOT
ATOM      1  N   UNL     1      97.125 106.701  95.928  1.00  0.00    -0.295 NA
ATOM      2  N   UNL     1      95.932 111.456  99.465  1.00  0.00    -0.361 N 
ATOM      3  C   UNL     1      96.497 107.934  96.513  1.00  0.00     0.091 C 
ATOM      4  C   UNL     1      96.346 109.120  95.501  1.00  0.00    -0.026 C 
ATOM      5  C   UNL     1      97.091 108.312  97.921  1.00  0.00     0.061 C 
ATOM      6  C   UNL     1      96.481 106.409  94.628  1.00  0.00     0.102 C 
ATOM      7  C   UNL     1      96.632 107.539  93.592  1.00  0.00     0.116 C 
ATOM      8  C   UNL     1      96.551 109.614  98.393  1.00  0.00    -0.020 A 
ATOM      9  C   UNL     1      95.995 110.453  96.053  1.00  0.00    -0.011 A 
ATOM     10  C   UNL     1      96.448 108.918  94.170  1.00  0.00    -0.007 C 
ATOM     11  C   UNL     1      96.091 110.557  97.449  1.00  0.00     0.010 A 
ATOM     12  C   UNL     1      95.728 111.711  98.126  1.00  0.00     0.046 A 
ATOM     13  C   UNL     1      96.437 110.186  99.639  1.00  0.00     0.087 A 
ATOM     14  C   UNL     1      95.535 111.587  95.366  1.00  0.00     0.009 A 
ATOM     15  C   UNL     1      95.263 112.842  97.453  1.00  0.00     0.027 A 
ATOM     16  C   UNL     1      95.180 112.755  96.056  1.00  0.00     0.003 A 
ATOM     17  H   UNL     1      95.753 112.116 100.209  1.00  0.00     0.166 HD
ENDROOT
BRANCH   7  18
ATOM     18  C   UNL     1      95.773 107.245  92.348  1.00  0.00     0.230 C 
ATOM     19  O   UNL     1      94.554 107.095  92.515  1.00  0.00    -0.274 OA
ATOM     20  N   UNL     1      96.319 107.193  91.067  1.00  0.00    -0.343 N 
BRANCH  20  21
ATOM     21  C   UNL     1      95.386 107.029  89.947  1.00  0.00     0.116 C 
ATOM     22  C   UNL     1      95.346 105.589  89.458  1.00  0.00     0.027 C 
ENDBRANCH  20  21
BRANCH  20  23
ATOM     23  C   UNL     1      97.738 107.306  90.714  1.00  0.00     0.116 C 
ATOM     24  C   UNL     1      98.068 108.644  90.067  1.00  0.00     0.027 C 
ENDBRANCH  20  23
ENDBRANCH   7  18
BRANCH   1  25
ATOM     25  C   UNL     1      98.596 106.779  95.838  1.00  0.00     0.085 C 
BRANCH  25  26
ATOM     26  C   UNL     1      99.360 105.496  96.205  1.00  0.00     0.012 C 
ATOM     27  C   UNL     1      98.716 104.717  97.344  1.00  0.00     0.005 C 
ENDBRANCH  25  26
ENDBRANCH   1  25
TORSDOF 5
ENDMDL
MODEL 2
REMARK VINA RESULT:    -7.796      2.287      5.280
REMARK INTER + INTRA:         -10.997
REMARK INTER:                 -10.552
REMARK INTRA:                  -0.445
REMARK UNBOUND:                -0.922
REMARK SMILES CCCN1C[C@H](C(=O)N(CC)CC)C=C2c3cccc4[nH]cc(c34)C[C@H]21
REMARK SMILES IDX 4 1 21 2 26 3 15 4 25 5 5 6 6 7 23 8 16 9 14 10 24 11 20 12
REMARK SMILES IDX 22 13 17 14 19 15 18 16 7 18 8 19 9 20 10 21 11 22 12 23
REMARK SMILES IDX 13 24 3 25 2 26 1 27
REMARK H PARENT 21 17
ROOT
ATOM      1  N   UNL     1      97.959 106.743  93.980  1.00  0.00    -0.295 NA
ATOM      2  N   UNL     1      95.541 111.777  96.294  1.00  0.00    -0.361 N 
ATOM      3  C   UNL     1      97.488 107.802  94.936  1.00  0.00     0.091 C 
ATOM      4  C   UNL     1      96.540 107.272  96.065  1.00  0.00    -0.026 C 
ATOM      5  C   UNL     1      97.012 109.114  94.207  1.00  0.00     0.061 C 
ATOM      6  C   UNL     1      98.414 105.568  94.756  1.00  0.00     0.102 C 
ATOM      7  C   UNL     1      97.316 104.940  95.634  1.00  0.00     0.116 C 
ATOM      8  C   UNL     1      96.418 110.074  95.175  1.00  0.00    -0.020 A 
ATOM      9  C   UNL     1      95.813 108.279  96.879  1.00  0.00    -0.011 A 
ATOM     10  C   UNL     1      96.452 105.953  96.340  1.00  0.00    -0.007 C 
ATOM     11  C   UNL     1      95.859 109.588  96.377  1.00  0.00     0.010 A 
ATOM     12  C   UNL     1      95.295 110.656  97.058  1.00  0.00     0.046 A 
ATOM     13  C   UNL     1      96.218 111.434  95.144  1.00  0.00     0.087 A 
ATOM     14  C   UNL     1      95.143 108.094  98.098  1.00  0.00     0.009 A 
ATOM     15  C   UNL     1      94.632 110.484  98.274  1.00  0.00     0.027 A 
ATOM     16  C   UNL     1      94.563 109.176  98.775  1.00  0.00     0.003 A 
ATOM     17  H   UNL     1      95.246 112.713  96.537  1.00  0.00     0.166 HD
ENDROOT
BRANCH   7  18
ATOM     18  C   UNL     1      97.915 103.858  96.552  1.00  0.00     0.230 C 
ATOM     19  O   UNL     1      97.561 102.685  96.360  1.00  0.00    -0.274 OA
ATOM     20  N   UNL     1      98.856 104.158  97.534  1.00  0.00    -0.343 N 
BRANCH  20  21
ATOM     21  C   UNL     1      99.447 103.030  98.262  1.00  0.00     0.116 C 
ATOM     22  C   UNL     1      99.597 103.338  99.745  1.00  0.00     0.027 C 
ENDBRANCH  20  21
BRANCH  20  23
ATOM     23  C   UNL     1      99.338 105.492  97.907  1.00  0.00     0.116 C 
ATOM     24  C   UNL     1     100.724 105.783  97.348  1.00  0.00     0.027 C 
ENDBRANCH  20  23
ENDBRANCH   7  18
BRANCH   1  25
ATOM     25  C   UNL     1      96.961 106.400  92.947  1.00  0.00     0.085 C 
BRANCH  25  26
ATOM     26  C   UNL     1      97.496 106.285  91.510  1.00  0.00     0.012 C 
ATOM     27  C   UNL     1      97.579 104.848  91.013  1.00  0.00     0.005 C 
ENDBRANCH  25  26
ENDBRANCH   1  25
TORSDOF 5
ENDMDL
MODEL 3
REMARK VINA RESULT:    -7.751      3.304      5.592
REMARK INTER + INTRA:         -10.939
REMARK INTER:                 -10.140
REMARK INTRA:                  -0.799
REMARK UNBOUND:                -0.922
REMARK SMILES CCCN1C[C@H](C(=O)N(CC)CC)C=C2c3cccc4[nH]cc(c34)C[C@H]21
REMARK SMILES IDX 4 1 21 2 26 3 15 4 25 5 5 6 6 7 23 8 16 9 14 10 24 11 20 12
REMARK SMILES IDX 22 13 17 14 19 15 18 16 7 18 8 19 9 20 10 21 11 22 12 23
REMARK SMILES IDX 13 24 3 25 2 26 1 27
REMARK H PARENT 21 17
ROOT
ATOM      1  N   UNL     1      94.555 110.082  95.790  1.00  0.00    -0.295 NA
ATOM      2  N   UNL     1      95.267 115.754  93.826  1.00  0.00    -0.361 N 
ATOM      3  C   UNL     1      95.075 111.303  95.087  1.00  0.00     0.091 C 
ATOM      4  C   UNL     1      96.591 111.598  95.349  1.00  0.00    -0.026 C 
ATOM      5  C   UNL     1      94.109 112.539  95.217  1.00  0.00     0.061 C 
ATOM      6  C   UNL     1      95.510 108.970  95.584  1.00  0.00     0.102 C 
ATOM      7  C   UNL     1      96.920 109.253  96.135  1.00  0.00     0.116 C 
ATOM      8  C   UNL     1      94.728 113.761  94.638  1.00  0.00    -0.020 A 
ATOM      9  C   UNL     1      97.116 112.922  94.926  1.00  0.00    -0.011 A 
ATOM     10  C   UNL     1      97.406 110.654  95.864  1.00  0.00    -0.007 C 
ATOM     11  C   UNL     1      96.135 113.859  94.571  1.00  0.00     0.010 A 
ATOM     12  C   UNL     1      96.461 115.115  94.083  1.00  0.00     0.046 A 
ATOM     13  C   UNL     1      94.207 114.943  94.164  1.00  0.00     0.087 A 
ATOM     14  C   UNL     1      98.452 113.325  94.787  1.00  0.00     0.009 A 
ATOM     15  C   UNL     1      97.788 115.523  93.936  1.00  0.00     0.027 A 
ATOM     16  C   UNL     1      98.777 114.601  94.305  1.00  0.00     0.003 A 
ATOM     17  H   UNL     1      95.186 116.692  93.459  1.00  0.00     0.166 HD
ENDROOT
BRANCH   7  18
ATOM     18  C   UNL     1      97.897 108.142  95.709  1.00  0.00     0.230 C 
ATOM     19  O   UNL     1      97.793 107.699  94.556  1.00  0.00    -0.274 OA
ATOM     20  N   UNL     1      98.899 107.671  96.556  1.00  0.00    -0.343 N 
BRANCH  20  21
ATOM     21  C   UNL     1      99.846 106.699  95.998  1.00  0.00     0.116 C 
ATOM     22  C   UNL     1     101.270 106.982  96.452  1.00  0.00     0.027 C 
ENDBRANCH  20  21
BRANCH  20  23
ATOM     23  C   UNL     1      99.120 108.061  97.952  1.00  0.00     0.116 C 
ATOM     24  C   UNL     1      98.449 107.109  98.931  1.00  0.00     0.027 C 
ENDBRANCH  20  23
ENDBRANCH   7  18
BRANCH   1  25
ATOM     25  C   UNL     1      94.239 110.313  97.212  1.00  0.00     0.085 C 
BRANCH  25  26
ATOM     26  C   UNL     1      94.227 109.064  98.110  1.00  0.00     0.012 C 
ATOM     27  C   UNL     1      95.248 109.125  99.238  1.00  0.00     0.005 C 
ENDBRANCH  25  26
ENDBRANCH   1  25
TORSDOF 5
ENDMDL
MODEL 4
REMARK VINA RESULT:    -7.737      3.813      5.928
REMARK INTER + INTRA:         -10.921
REMARK INTER:                 -10.314
REMARK INTRA:                  -0.608
REMARK UNBOUND:                -0.922
REMARK SMILES CCCN1C[C@H](C(=O)N(CC)CC)C=C2c3cccc4[nH]cc(c34)C[C@H]21
REMARK SMILES IDX 4 1 21 2 26 3 15 4 25 5 5 6 6 7 23 8 16 9 14 10 24 11 20 12
REMARK SMILES IDX 22 13 17 14 19 15 18 16 7 18 8 19 9 20 10 21 11 22 12 23
REMARK SMILES IDX 13 24 3 25 2 26 1 27
REMARK H PARENT 21 17
ROOT
ATOM      1  N   UNL     1      98.016 103.281  95.895  1.00  0.00    -0.295 NA
ATOM      2  N   UNL     1     100.404 103.344 101.448  1.00  0.00    -0.361 N 
ATOM      3  C   UNL     1      98.425 103.702  97.278  1.00  0.00     0.091 C 
ATOM      4  C   UNL     1      99.201 105.062  97.332  1.00  0.00    -0.026 C 
ATOM      5  C   UNL     1      99.054 102.526  98.113  1.00  0.00     0.061 C 
ATOM      6  C   UNL     1      97.409 104.440  95.203  1.00  0.00     0.102 C 
ATOM      7  C   UNL     1      98.358 105.643  95.056  1.00  0.00     0.116 C 
ATOM      8  C   UNL     1      99.578 103.019  99.414  1.00  0.00    -0.020 A 
ATOM      9  C   UNL     1      99.877 105.416  98.605  1.00  0.00    -0.011 A 
ATOM     10  C   UNL     1      99.184 105.916  96.287  1.00  0.00    -0.007 C 
ATOM     11  C   UNL     1      99.962 104.372  99.538  1.00  0.00     0.010 A 
ATOM     12  C   UNL     1     100.497 104.559 100.804  1.00  0.00     0.046 A 
ATOM     13  C   UNL     1      99.853 102.399 100.611  1.00  0.00     0.087 A 
ATOM     14  C   UNL     1     100.385 106.661  99.005  1.00  0.00     0.009 A 
ATOM     15  C   UNL     1     100.999 105.795 101.213  1.00  0.00     0.027 A 
ATOM     16  C   UNL     1     100.936 106.842 100.282  1.00  0.00     0.003 A 
ATOM     17  H   UNL     1     100.717 103.170 102.393  1.00  0.00     0.166 HD
ENDROOT
BRANCH   7  18
ATOM     18  C   UNL     1      97.596 106.865  94.510  1.00  0.00     0.230 C 
ATOM     19  O   UNL     1      97.298 107.760  95.314  1.00  0.00    -0.274 OA
ATOM     20  N   UNL     1      97.287 107.001  93.158  1.00  0.00    -0.343 N 
BRANCH  20  21
ATOM     21  C   UNL     1      96.669 108.263  92.737  1.00  0.00     0.116 C 
ATOM     22  C   UNL     1      95.155 108.144  92.649  1.00  0.00     0.027 C 
ENDBRANCH  20  21
BRANCH  20  23
ATOM     23  C   UNL     1      97.532 106.017  92.100  1.00  0.00     0.116 C 
ATOM     24  C   UNL     1      97.957 106.668  90.792  1.00  0.00     0.027 C 
ENDBRANCH  20  23
ENDBRANCH   7  18
BRANCH   1  25
ATOM     25  C   UNL     1      99.110 102.659  95.124  1.00  0.00     0.085 C 
BRANCH  25  26
ATOM     26  C   UNL     1      98.689 101.892  93.859  1.00  0.00     0.012 C 
ATOM     27  C   UNL     1      99.840 101.145  93.198  1.00  0.00     0.005 C 
ENDBRANCH  25  26
ENDBRANCH   1  25
TORSDOF 5
ENDMDL
MODEL 5
REMARK VINA RESULT:    -7.720      3.343      6.685
REMARK INTER + INTRA:         -10.899
REMARK INTER:                 -10.163
REMARK INTRA:                  -0.736
REMARK UNBOUND:                -0.922
REMARK SMILES CCCN1C[C@H](C(=O)N(CC)CC)C=C2c3cccc4[nH]cc(c34)C[C@H]21
REMARK SMILES IDX 4 1 21 2 26 3 15 4 25 5 5 6 6 7 23 8 16 9 14 10 24 11 20 12
REMARK SMILES IDX 22 13 17 14 19 15 18 16 7 18 8 19 9 20 10 21 11 22 12 23
REMARK SMILES IDX 13 24 3 25 2 26 1 27
REMARK H PARENT 21 17
ROOT
ATOM      1  N   UNL     1      99.003 105.709  95.596  1.00  0.00    -0.295 NA
ATOM      2  N   UNL     1      94.671 109.905  95.189  1.00  0.00    -0.361 N 
ATOM      3  C   UNL     1      98.159 106.929  95.831  1.00  0.00     0.091 C 
ATOM      4  C   UNL     1      97.659 107.089  97.307  1.00  0.00    -0.026 C 
ATOM      5  C   UNL     1      97.069 107.141  94.716  1.00  0.00     0.061 C 
ATOM      6  C   UNL     1     100.015 105.614  96.672  1.00  0.00     0.102 C 
ATOM      7  C   UNL     1      99.411 105.491  98.083  1.00  0.00     0.116 C 
ATOM      8  C   UNL     1      96.164 108.269  95.065  1.00  0.00    -0.020 A 
ATOM      9  C   UNL     1      96.605 108.102  97.568  1.00  0.00    -0.011 A 
ATOM     10  C   UNL     1      98.226 106.392  98.315  1.00  0.00    -0.007 C 
ATOM     11  C   UNL     1      95.990 108.623  96.420  1.00  0.00     0.010 A 
ATOM     12  C   UNL     1      95.040 109.631  96.489  1.00  0.00     0.046 A 
ATOM     13  C   UNL     1      95.344 109.079  94.316  1.00  0.00     0.087 A 
ATOM     14  C   UNL     1      96.193 108.632  98.800  1.00  0.00     0.009 A 
ATOM     15  C   UNL     1      94.628 110.169  97.709  1.00  0.00     0.027 A 
ATOM     16  C   UNL     1      95.222 109.642  98.864  1.00  0.00     0.003 A 
ATOM     17  H   UNL     1      93.988 110.600  94.922  1.00  0.00     0.166 HD
ENDROOT
BRANCH   7  18
ATOM     18  C   UNL     1     100.516 105.597  99.151  1.00  0.00     0.230 C 
ATOM     19  O   UNL     1     101.421 106.421  98.959  1.00  0.00    -0.274 OA
ATOM     20  N   UNL     1     100.491 104.839 100.320  1.00  0.00    -0.343 N 
BRANCH  20  21
ATOM     21  C   UNL     1     101.529 105.114 101.319  1.00  0.00     0.116 C 
ATOM     22  C   UNL     1     100.983 105.924 102.486  1.00  0.00     0.027 C 
ENDBRANCH  20  21
BRANCH  20  23
ATOM     23  C   UNL     1      99.518 103.798 100.669  1.00  0.00     0.116 C 
ATOM     24  C   UNL     1      99.846 102.460 100.023  1.00  0.00     0.027 C 
ENDBRANCH  20  23
ENDBRANCH   7  18
BRANCH   1  25
ATOM     25  C   UNL     1      98.214 104.472  95.437  1.00  0.00     0.085 C 
BRANCH  25  26
ATOM     26  C   UNL     1      99.008 103.156  95.496  1.00  0.00     0.012 C 
ATOM     27  C   UNL     1      98.683 102.206  94.351  1.00  0.00     0.005 C 
ENDBRANCH  25  26
ENDBRANCH   1  25
TORSDOF 5
ENDMDL
MODEL 6
REMARK VINA RESULT:    -7.686      2.233      7.085
REMARK INTER + INTRA:         -10.855
REMARK INTER:                 -10.391
REMARK INTRA:                  -0.463
REMARK UNBOUND:                -0.922
REMARK SMILES CCCN1C[C@H](C(=O)N(CC)CC)C=C2c3cccc4[nH]cc(c34)C[C@H]21
REMARK SMILES IDX 4 1 21 2 26 3 15 4 25 5 5 6 6 7 23 8 16 9 14 10 24 11 20 12
REMARK SMILES IDX 22 13 17 14 19 15 18 16 7 18 8 19 9 20 10 21 11 22 12 23
REMARK SMILES IDX 13 24 3 25 2 26 1 27
REMARK H PARENT 21 17
ROOT
ATOM      1  N   UNL     1      96.424 107.352  94.763  1.00  0.00    -0.295 NA
ATOM      2  N   UNL     1      98.669 102.368  97.344  1.00  0.00    -0.361 N 
ATOM      3  C   UNL     1      96.918 106.356  95.773  1.00  0.00     0.091 C 
ATOM      4  C   UNL     1      98.044 106.903  96.716  1.00  0.00    -0.026 C 
ATOM      5  C   UNL     1      97.182 104.935  95.150  1.00  0.00     0.061 C 
ATOM      6  C   UNL     1      96.174 108.641  95.446  1.00  0.00     0.102 C 
ATOM      7  C   UNL     1      97.425 109.243  96.113  1.00  0.00     0.116 C 
ATOM      8  C   UNL     1      97.808 104.026  96.147  1.00  0.00    -0.020 A 
ATOM      9  C   UNL     1      98.778 105.917  97.551  1.00  0.00    -0.011 A 
ATOM     10  C   UNL     1      98.280 108.227  96.826  1.00  0.00    -0.007 C 
ATOM     11  C   UNL     1      98.555 104.575  97.212  1.00  0.00     0.010 A 
ATOM     12  C   UNL     1      99.106 103.532  97.941  1.00  0.00     0.046 A 
ATOM     13  C   UNL     1      97.884 102.656  96.249  1.00  0.00     0.087 A 
ATOM     14  C   UNL     1      99.610 106.160  98.654  1.00  0.00     0.009 A 
ATOM     15  C   UNL     1      99.930 103.762  99.043  1.00  0.00     0.027 A 
ATOM     16  C   UNL     1     100.175 105.101  99.380  1.00  0.00     0.003 A 
ATOM     17  H   UNL     1      98.909 101.438  97.657  1.00  0.00     0.166 HD
ENDROOT
BRANCH   7  18
ATOM     18  C   UNL     1      97.043 110.469  96.963  1.00  0.00     0.230 C 
ATOM     19  O   UNL     1      97.561 111.556  96.667  1.00  0.00    -0.274 OA
ATOM     20  N   UNL     1      96.116 110.391  98.000  1.00  0.00    -0.343 N 
BRANCH  20  21
ATOM     21  C   UNL     1      95.740 111.647  98.658  1.00  0.00     0.116 C 
ATOM     22  C   UNL     1      96.423 111.798 100.009  1.00  0.00     0.027 C 
ENDBRANCH  20  21
BRANCH  20  23
ATOM     23  C   UNL     1      95.455 109.179  98.495  1.00  0.00     0.116 C 
ATOM     24  C   UNL     1      93.941 109.325  98.542  1.00  0.00     0.027 C 
ENDBRANCH  20  23
ENDBRANCH   7  18
BRANCH   1  25
ATOM     25  C   UNL     1      97.309 107.485  93.589  1.00  0.00     0.085 C 
BRANCH  25  26
ATOM     26  C   UNL     1      96.633 107.952  92.289  1.00  0.00     0.012 C 
ATOM     27  C   UNL     1      97.626 108.344  91.203  1.00  0.00     0.005 C 
ENDBRANCH  25  26
ENDBRANCH   1  25
TORSDOF 5
ENDMDL
MODEL 7
REMARK VINA RESULT:    -7.620      2.020      6.144
REMARK INTER + INTRA:         -10.770
REMARK INTER:                 -10.033
REMARK INTRA:                  -0.738
REMARK UNBOUND:                -0.922
REMARK SMILES CCCN1C[C@H](C(=O)N(CC)CC)C=C2c3cccc4[nH]cc(c34)C[C@H]21
REMARK SMILES IDX 4 1 21 2 26 3 15 4 25 5 5 6 6 7 23 8 16 9 14 10 24 11 20 12
REMARK SMILES IDX 22 13 17 14 19 15 18 16 7 18 8 19 9 20 10 21 11 22 12 23
REMARK SMILES IDX 13 24 3 25 2 26 1 27
REMARK H PARENT 21 17
ROOT
ATOM      1  N   UNL     1      96.702 106.852  93.191  1.00  0.00    -0.295 NA
ATOM      2  N   UNL     1      99.183 103.165  97.288  1.00  0.00    -0.361 N 
ATOM      3  C   UNL     1      97.076 106.189  94.485  1.00  0.00     0.091 C 
ATOM      4  C   UNL     1      97.647 107.168  95.567  1.00  0.00    -0.026 C 
ATOM      5  C   UNL     1      97.889 104.857  94.275  1.00  0.00     0.061 C 
ATOM      6  C   UNL     1      95.916 108.070  93.488  1.00  0.00     0.102 C 
ATOM      7  C   UNL     1      96.677 109.108  94.334  1.00  0.00     0.116 C 
ATOM      8  C   UNL     1      98.366 104.315  95.576  1.00  0.00    -0.020 A 
ATOM      9  C   UNL     1      98.295 106.568  96.761  1.00  0.00    -0.011 A 
ATOM     10  C   UNL     1      97.482 108.503  95.455  1.00  0.00    -0.007 C 
ATOM     11  C   UNL     1      98.552 105.193  96.665  1.00  0.00     0.010 A 
ATOM     12  C   UNL     1      99.082 104.469  97.722  1.00  0.00     0.046 A 
ATOM     13  C   UNL     1      98.755 103.060  95.983  1.00  0.00     0.087 A 
ATOM     14  C   UNL     1      98.625 107.189  97.976  1.00  0.00     0.009 A 
ATOM     15  C   UNL     1      99.409 105.076  98.936  1.00  0.00     0.027 A 
ATOM     16  C   UNL     1      99.174 106.454  99.037  1.00  0.00     0.003 A 
ATOM     17  H   UNL     1      99.539 102.401  97.845  1.00  0.00     0.166 HD
ENDROOT
BRANCH   7  18
ATOM     18  C   UNL     1      95.733 110.247  94.765  1.00  0.00     0.230 C 
ATOM     19  O   UNL     1      94.516 110.013  94.765  1.00  0.00    -0.274 OA
ATOM     20  N   UNL     1      96.212 111.485  95.188  1.00  0.00    -0.343 N 
BRANCH  20  21
ATOM     21  C   UNL     1      95.226 112.448  95.691  1.00  0.00     0.116 C 
ATOM     22  C   UNL     1      95.359 112.653  97.193  1.00  0.00     0.027 C 
ENDBRANCH  20  21
BRANCH  20  23
ATOM     23  C   UNL     1      97.611 111.925  95.203  1.00  0.00     0.116 C 
ATOM     24  C   UNL     1      97.826 113.193  94.387  1.00  0.00     0.027 C 
ENDBRANCH  20  23
ENDBRANCH   7  18
BRANCH   1  25
ATOM     25  C   UNL     1      97.856 107.112  92.309  1.00  0.00     0.085 C 
BRANCH  25  26
ATOM     26  C   UNL     1      97.536 107.280  90.814  1.00  0.00     0.012 C 
ATOM     27  C   UNL     1      97.948 108.637  90.260  1.00  0.00     0.005 C 
ENDBRANCH  25  26
ENDBRANCH   1  25
TORSDOF 5
ENDMDL
MODEL 8
REMARK VINA RESULT:    -7.581      2.758      7.363
REMARK INTER + INTRA:         -10.720
REMARK INTER:                  -9.924
REMARK INTRA:                  -0.796
REMARK UNBOUND:                -0.922
REMARK SMILES CCCN1C[C@H](C(=O)N(CC)CC)C=C2c3cccc4[nH]cc(c34)C[C@H]21
REMARK SMILES IDX 4 1 21 2 26 3 15 4 25 5 5 6 6 7 23 8 16 9 14 10 24 11 20 12
REMARK SMILES IDX 22 13 17 14 19 15 18 16 7 18 8 19 9 20 10 21 11 22 12 23
REMARK SMILES IDX 13 24 3 25 2 26 1 27
REMARK H PARENT 21 17
ROOT
ATOM      1  N   UNL     1      96.023 107.677  95.965  1.00  0.00    -0.295 NA
ATOM      2  N   UNL     1      98.630 102.283  96.771  1.00  0.00    -0.361 N 
ATOM      3  C   UNL     1      96.763 106.515  96.564  1.00  0.00     0.091 C 
ATOM      4  C   UNL     1      98.192 106.871  97.099  1.00  0.00    -0.026 C 
ATOM      5  C   UNL     1      96.671 105.214  95.683  1.00  0.00     0.061 C 
ATOM      6  C   UNL     1      96.139 108.837  96.877  1.00  0.00     0.102 C 
ATOM      7  C   UNL     1      97.590 109.292  97.121  1.00  0.00     0.116 C 
ATOM      8  C   UNL     1      97.536 104.136  96.233  1.00  0.00    -0.020 A 
ATOM      9  C   UNL     1      99.093 105.744  97.450  1.00  0.00    -0.011 A 
ATOM     10  C   UNL     1      98.558 108.152  97.311  1.00  0.00    -0.007 C 
ATOM     11  C   UNL     1      98.656 104.482  97.020  1.00  0.00     0.010 A 
ATOM     12  C   UNL     1      99.345 103.320  97.332  1.00  0.00     0.046 A 
ATOM     13  C   UNL     1      97.532 102.768  96.096  1.00  0.00     0.087 A 
ATOM     14  C   UNL     1     100.282 105.779  98.195  1.00  0.00     0.009 A 
ATOM     15  C   UNL     1     100.524 103.344  98.078  1.00  0.00     0.027 A 
ATOM     16  C   UNL     1     100.981 104.601  98.497  1.00  0.00     0.003 A 
ATOM     17  H   UNL     1      98.891 101.309  96.832  1.00  0.00     0.166 HD
ENDROOT
BRANCH   7  18
ATOM     18  C   UNL     1      97.638 110.365  98.225  1.00  0.00     0.230 C 
ATOM     19  O   UNL     1      97.229 110.048  99.351  1.00  0.00    -0.274 OA
ATOM     20  N   UNL     1      98.163 111.636  97.999  1.00  0.00    -0.343 N 
BRANCH  20  21
ATOM     21  C   UNL     1      98.269 112.532  99.155  1.00  0.00     0.116 C 
ATOM     22  C   UNL     1      99.721 112.793  99.530  1.00  0.00     0.027 C 
ENDBRANCH  20  21
BRANCH  20  23
ATOM     23  C   UNL     1      98.641 112.172  96.720  1.00  0.00     0.116 C 
ATOM     24  C   UNL     1      97.767 113.307  96.206  1.00  0.00     0.027 C 
ENDBRANCH  20  23
ENDBRANCH   7  18
BRANCH   1  25
ATOM     25  C   UNL     1      96.437 107.986  94.583  1.00  0.00     0.085 C 
BRANCH  25  26
ATOM     26  C   UNL     1      95.355 108.603  93.680  1.00  0.00     0.012 C 
ATOM     27  C   UNL     1      95.049 107.762  92.448  1.00  0.00     0.005 C 
ENDBRANCH  25  26
ENDBRANCH   1  25
TORSDOF 5
ENDMDL
MODEL 9
REMARK VINA RESULT:    -7.569      2.915      6.170
REMARK INTER + INTRA:         -10.704
REMARK INTER:                  -9.991
REMARK INTRA:                  -0.712
REMARK UNBOUND:                -0.922
REMARK SMILES CCCN1C[C@H](C(=O)N(CC)CC)C=C2c3cccc4[nH]cc(c34)C[C@H]21
REMARK SMILES IDX 4 1 21 2 26 3 15 4 25 5 5 6 6 7 23 8 16 9 14 10 24 11 20 12
REMARK SMILES IDX 22 13 17 14 19 15 18 16 7 18 8 19 9 20 10 21 11 22 12 23
REMARK SMILES IDX 13 24 3 25 2 26 1 27
REMARK H PARENT 21 17
ROOT
ATOM      1  N   UNL     1      98.809 108.616  98.193  1.00  0.00    -0.295 NA
ATOM      2  N   UNL     1      94.516 109.602  94.053  1.00  0.00    -0.361 N 
ATOM      3  C   UNL     1      97.774 108.418  97.122  1.00  0.00     0.091 C 
ATOM      4  C   UNL     1      98.296 107.653  95.858  1.00  0.00    -0.026 C 
ATOM      5  C   UNL     1      96.939 109.720  96.833  1.00  0.00     0.061 C 
ATOM      6  C   UNL     1      99.516 107.335  98.416  1.00  0.00     0.102 C 
ATOM      7  C   UNL     1     100.242 106.800  97.167  1.00  0.00     0.116 C 
ATOM      8  C   UNL     1      96.033 109.523  95.670  1.00  0.00    -0.020 A 
ATOM      9  C   UNL     1      97.432 107.655  94.650  1.00  0.00    -0.011 A 
ATOM     10  C   UNL     1      99.447 106.950  95.895  1.00  0.00    -0.007 C 
ATOM     11  C   UNL     1      96.361 108.560  94.692  1.00  0.00     0.010 A 
ATOM     12  C   UNL     1      95.420 108.632  93.676  1.00  0.00     0.046 A 
ATOM     13  C   UNL     1      94.881 110.155  95.261  1.00  0.00     0.087 A 
ATOM     14  C   UNL     1      97.524 106.838  93.513  1.00  0.00     0.009 A 
ATOM     15  C   UNL     1      95.498 107.819  92.545  1.00  0.00     0.027 A 
ATOM     16  C   UNL     1      96.576 106.924  92.483  1.00  0.00     0.003 A 
ATOM     17  H   UNL     1      93.712 109.879  93.508  1.00  0.00     0.166 HD
ENDROOT
BRANCH   7  18
ATOM     18  C   UNL     1     100.779 105.380  97.424  1.00  0.00     0.230 C 
ATOM     19  O   UNL     1     102.009 105.235  97.485  1.00  0.00    -0.274 OA
ATOM     20  N   UNL     1      99.932 104.294  97.631  1.00  0.00    -0.343 N 
BRANCH  20  21
ATOM     21  C   UNL     1     100.556 103.016  97.989  1.00  0.00     0.116 C 
ATOM     22  C   UNL     1      99.837 102.347  99.150  1.00  0.00     0.027 C 
ENDBRANCH  20  21
BRANCH  20  23
ATOM     23  C   UNL     1      98.467 104.297  97.547  1.00  0.00     0.116 C 
ATOM     24  C   UNL     1      97.962 103.695  96.243  1.00  0.00     0.027 C 
ENDBRANCH  20  23
ENDBRANCH   7  18
BRANCH   1  25
ATOM     25  C   UNL     1      99.726 109.740  97.922  1.00  0.00     0.085 C 
BRANCH  25  26
ATOM     26  C   UNL     1     100.052 110.645  99.122  1.00  0.00     0.012 C 
ATOM     27  C   UNL     1      98.910 111.577  99.501  1.00  0.00     0.005 C 
ENDBRANCH  25  26
ENDBRANCH   1  25
TORSDOF 5
ENDMDL
MODEL 10
REMARK VINA RESULT:    -7.426      2.006      5.389
REMARK INTER + INTRA:         -10.519
REMARK INTER:                 -10.068
REMARK INTRA:                  -0.451
REMARK UNBOUND:                -0.922
REMARK SMILES CCCN1C[C@H](C(=O)N(CC)CC)C=C2c3cccc4[nH]cc(c34)C[C@H]21
REMARK SMILES IDX 4 1 21 2 26 3 15 4 25 5 5 6 6 7 23 8 16 9 14 10 24 11 20 12
REMARK SMILES IDX 22 13 17 14 19 15 18 16 7 18 8 19 9 20 10 21 11 22 12 23
REMARK SMILES IDX 13 24 3 25 2 26 1 27
REMARK H PARENT 21 17
ROOT
ATOM      1  N   UNL     1      97.820 109.298  96.178  1.00  0.00    -0.295 NA
ATOM      2  N   UNL     1     101.878 105.281  98.160  1.00  0.00    -0.361 N 
ATOM      3  C   UNL     1      98.771 108.139  96.259  1.00  0.00     0.091 C 
ATOM      4  C   UNL     1      98.130 106.755  95.898  1.00  0.00    -0.026 C 
ATOM      5  C   UNL     1      99.652 108.161  97.564  1.00  0.00     0.061 C 
ATOM      6  C   UNL     1      97.065 109.208  94.909  1.00  0.00     0.102 C 
ATOM      7  C   UNL     1      96.233 107.920  94.771  1.00  0.00     0.116 C 
ATOM      8  C   UNL     1     100.468 106.923  97.676  1.00  0.00    -0.020 A 
ATOM      9  C   UNL     1      98.911 105.533  96.215  1.00  0.00    -0.011 A 
ATOM     10  C   UNL     1      96.949 106.683  95.249  1.00  0.00    -0.007 C 
ATOM     11  C   UNL     1     100.028 105.743  97.038  1.00  0.00     0.010 A 
ATOM     12  C   UNL     1     100.903 104.719  97.364  1.00  0.00     0.046 A 
ATOM     13  C   UNL     1     101.621 106.619  98.361  1.00  0.00     0.087 A 
ATOM     14  C   UNL     1      98.705 104.224  95.755  1.00  0.00     0.009 A 
ATOM     15  C   UNL     1     100.710 103.415  96.907  1.00  0.00     0.027 A 
ATOM     16  C   UNL     1      99.586 103.189  96.099  1.00  0.00     0.003 A 
ATOM     17  H   UNL     1     102.658 104.774  98.555  1.00  0.00     0.166 HD
ENDROOT
BRANCH   7  18
ATOM     18  C   UNL     1      95.641 107.811  93.353  1.00  0.00     0.230 C 
ATOM     19  O   UNL     1      94.524 108.312  93.158  1.00  0.00    -0.274 OA
ATOM     20  N   UNL     1      96.340 107.219  92.303  1.00  0.00    -0.343 N 
BRANCH  20  21
ATOM     21  C   UNL     1      95.728 107.283  90.971  1.00  0.00     0.116 C 
ATOM     22  C   UNL     1      96.370 108.362  90.112  1.00  0.00     0.027 C 
ENDBRANCH  20  21
BRANCH  20  23
ATOM     23  C   UNL     1      97.642 106.548  92.385  1.00  0.00     0.116 C 
ATOM     24  C   UNL     1      97.658 105.225  91.633  1.00  0.00     0.027 C 
ENDBRANCH  20  23
ENDBRANCH   7  18
BRANCH   1  25
ATOM     25  C   UNL     1      96.946 109.423  97.361  1.00  0.00     0.085 C 
BRANCH  25  26
ATOM     26  C   UNL     1      95.837 110.484  97.267  1.00  0.00     0.012 C 
ATOM     27  C   UNL     1      94.457 109.944  97.618  1.00  0.00     0.005 C 
ENDBRANCH  25  26
ENDBRANCH   1  25
TORSDOF 5
ENDMDL
MODEL 11
REMARK VINA RESULT:    -7.396      3.458      6.337
REMARK INTER + INTRA:         -10.480
REMARK INTER:                  -9.497
REMARK INTRA:                  -0.983
REMARK UNBOUND:                -0.922
REMARK SMILES CCCN1C[C@H](C(=O)N(CC)CC)C=C2c3cccc4[nH]cc(c34)C[C@H]21
REMARK SMILES IDX 4 1 21 2 26 3 15 4 25 5 5 6 6 7 23 8 16 9 14 10 24 11 20 12
REMARK SMILES IDX 22 13 17 14 19 15 18 16 7 18 8 19 9 20 10 21 11 22 12 23
REMARK SMILES IDX 13 24 3 25 2 26 1 27
REMARK H PARENT 21 17
ROOT
ATOM      1  N   UNL     1      98.552 107.185  96.039  1.00  0.00    -0.295 NA
ATOM      2  N   UNL     1      95.276 112.261  96.234  1.00  0.00    -0.361 N 
ATOM      3  C   UNL     1      98.032 108.545  96.408  1.00  0.00     0.091 C 
ATOM      4  C   UNL     1      97.704 108.715  97.930  1.00  0.00    -0.026 C 
ATOM      5  C   UNL     1      96.931 109.068  95.412  1.00  0.00     0.061 C 
ATOM      6  C   UNL     1      99.599 106.795  97.009  1.00  0.00     0.102 C 
ATOM      7  C   UNL     1      99.101 106.718  98.464  1.00  0.00     0.116 C 
ATOM      8  C   UNL     1      96.340 110.344  95.895  1.00  0.00    -0.020 A 
ATOM      9  C   UNL     1      96.934 109.919  98.335  1.00  0.00    -0.011 A 
ATOM     10  C   UNL     1      98.176 107.844  98.847  1.00  0.00    -0.007 C 
ATOM     11  C   UNL     1      96.363 110.639  97.275  1.00  0.00     0.010 A 
ATOM     12  C   UNL     1      95.678 111.827  97.479  1.00  0.00     0.046 A 
ATOM     13  C   UNL     1      95.668 111.365  95.264  1.00  0.00     0.087 A 
ATOM     14  C   UNL     1      96.757 110.446  99.623  1.00  0.00     0.009 A 
ATOM     15  C   UNL     1      95.501 112.363  98.755  1.00  0.00     0.027 A 
ATOM     16  C   UNL     1      96.051 111.641  99.824  1.00  0.00     0.003 A 
ATOM     17  H   UNL     1      94.751 113.108  96.064  1.00  0.00     0.166 HD
ENDROOT
BRANCH   7  18
ATOM     18  C   UNL     1     100.284 106.504  99.427  1.00  0.00     0.230 C 
ATOM     19  O   UNL     1     101.126 107.410  99.509  1.00  0.00    -0.274 OA
ATOM     20  N   UNL     1     100.396 105.364 100.219  1.00  0.00    -0.343 N 
BRANCH  20  21
ATOM     21  C   UNL     1     101.499 105.326 101.186  1.00  0.00     0.116 C 
ATOM     22  C   UNL     1     101.027 105.685 102.588  1.00  0.00     0.027 C 
ENDBRANCH  20  21
BRANCH  20  23
ATOM     23  C   UNL     1      99.511 104.195 100.203  1.00  0.00     0.116 C 
ATOM     24  C   UNL     1      99.966 103.140  99.205  1.00  0.00     0.027 C 
ENDBRANCH  20  23
ENDBRANCH   7  18
BRANCH   1  25
ATOM     25  C   UNL     1      97.490 106.169  95.899  1.00  0.00     0.085 C 
BRANCH  25  26
ATOM     26  C   UNL     1      97.942 104.791  95.386  1.00  0.00     0.012 C 
ATOM     27  C   UNL     1      97.579 103.650  96.327  1.00  0.00     0.005 C 
ENDBRANCH  25  26
ENDBRANCH   1  25
TORSDOF 5
ENDMDL
MODEL 12
REMARK VINA RESULT:    -7.379      2.804      6.580
REMARK INTER + INTRA:         -10.458
REMARK INTER:                  -9.550
REMARK INTRA:                  -0.908
REMARK UNBOUND:                -0.922
REMARK SMILES CCCN1C[C@H](C(=O)N(CC)CC)C=C2c3cccc4[nH]cc(c34)C[C@H]21
REMARK SMILES IDX 4 1 21 2 26 3 15 4 25 5 5 6 6 7 23 8 16 9 14 10 24 11 20 12
REMARK SMILES IDX 22 13 17 14 19 15 18 16 7 18 8 19 9 20 10 21 11 22 12 23
REMARK SMILES IDX 13 24 3 25 2 26 1 27
REMARK H PARENT 21 17
ROOT
ATOM      1  N   UNL     1      97.304 110.862  97.487  1.00  0.00    -0.295 NA
ATOM      2  N   UNL     1      97.935 105.308  95.186  1.00  0.00    -0.361 N 
ATOM      3  C   UNL     1      97.667 109.711  96.593  1.00  0.00     0.091 C 
ATOM      4  C   UNL     1      97.168 109.863  95.116  1.00  0.00    -0.026 C 
ATOM      5  C   UNL     1      97.398 108.311  97.261  1.00  0.00     0.061 C 
ATOM      6  C   UNL     1      97.621 112.127  96.789  1.00  0.00     0.102 C 
ATOM      7  C   UNL     1      96.858 112.314  95.465  1.00  0.00     0.116 C 
ATOM      8  C   UNL     1      97.629 107.206  96.293  1.00  0.00    -0.020 A 
ATOM      9  C   UNL     1      97.239 108.665  94.241  1.00  0.00    -0.011 A 
ATOM     10  C   UNL     1      96.769 111.060  94.635  1.00  0.00    -0.007 C 
ATOM     11  C   UNL     1      97.504 107.461  94.910  1.00  0.00     0.010 A 
ATOM     12  C   UNL     1      97.675 106.265  94.229  1.00  0.00     0.046 A 
ATOM     13  C   UNL     1      97.904 105.867  96.445  1.00  0.00     0.087 A 
ATOM     14  C   UNL     1      97.128 108.600  92.844  1.00  0.00     0.009 A 
ATOM     15  C   UNL     1      97.574 106.191  92.839  1.00  0.00     0.027 A 
ATOM     16  C   UNL     1      97.290 107.385  92.162  1.00  0.00     0.003 A 
ATOM     17  H   UNL     1      98.103 104.331  94.989  1.00  0.00     0.166 HD
ENDROOT
BRANCH   7  18
ATOM     18  C   UNL     1      97.387 113.547  94.709  1.00  0.00     0.230 C 
ATOM     19  O   UNL     1      98.546 113.497  94.272  1.00  0.00    -0.274 OA
ATOM     20  N   UNL     1      96.594 114.668  94.472  1.00  0.00    -0.343 N 
BRANCH  20  21
ATOM     21  C   UNL     1      97.165 115.729  93.636  1.00  0.00     0.116 C 
ATOM     22  C   UNL     1      97.612 116.920  94.470  1.00  0.00     0.027 C 
ENDBRANCH  20  21
BRANCH  20  23
ATOM     23  C   UNL     1      95.228 114.893  94.958  1.00  0.00     0.116 C 
ATOM     24  C   UNL     1      94.176 114.414  93.968  1.00  0.00     0.027 C 
ENDBRANCH  20  23
ENDBRANCH   7  18
BRANCH   1  25
ATOM     25  C   UNL     1      95.912 110.808  97.977  1.00  0.00     0.085 C 
BRANCH  25  26
ATOM     26  C   UNL     1      95.652 111.479  99.336  1.00  0.00     0.012 C 
ATOM     27  C   UNL     1      96.795 111.297 100.326  1.00  0.00     0.005 C 
ENDBRANCH  25  26
ENDBRANCH   1  25
TORSDOF 5
ENDMDL
MODEL 13
REMARK VINA RESULT:    -7.372      2.615      6.780
REMARK INTER + INTRA:         -10.450
REMARK INTER:                 -10.354
REMARK INTRA:                  -0.096
REMARK UNBOUND:                -0.922
REMARK SMILES CCCN1C[C@H](C(=O)N(CC)CC)C=C2c3cccc4[nH]cc(c34)C[C@H]21
REMARK SMILES IDX 4 1 21 2 26 3 15 4 25 5 5 6 6 7 23 8 16 9 14 10 24 11 20 12
REMARK SMILES IDX 22 13 17 14 19 15 18 16 7 18 8 19 9 20 10 21 11 22 12 23
REMARK SMILES IDX 13 24 3 25 2 26 1 27
REMARK H PARENT 21 17
ROOT
ATOM      1  N   UNL     1      96.261 111.973  97.068  1.00  0.00    -0.295 NA
ATOM      2  N   UNL     1      98.424 106.714  95.020  1.00  0.00    -0.361 N 
ATOM      3  C   UNL     1      96.710 110.859  96.167  1.00  0.00     0.091 C 
ATOM      4  C   UNL     1      95.626 110.389  95.138  1.00  0.00    -0.026 C 
ATOM      5  C   UNL     1      97.457 109.711  96.942  1.00  0.00     0.061 C 
ATOM      6  C   UNL     1      95.603 113.015  96.248  1.00  0.00     0.102 C 
ATOM      7  C   UNL     1      94.363 112.512  95.484  1.00  0.00     0.116 C 
ATOM      8  C   UNL     1      97.751 108.565  96.041  1.00  0.00    -0.020 A 
ATOM      9  C   UNL     1      95.881 109.123  94.404  1.00  0.00    -0.011 A 
ATOM     10  C   UNL     1      94.543 111.148  94.871  1.00  0.00    -0.007 C 
ATOM     11  C   UNL     1      96.945 108.357  94.901  1.00  0.00     0.010 A 
ATOM     12  C   UNL     1      97.359 107.187  94.282  1.00  0.00     0.046 A 
ATOM     13  C   UNL     1      98.667 107.540  96.094  1.00  0.00     0.087 A 
ATOM     14  C   UNL     1      95.233 108.636  93.259  1.00  0.00     0.009 A 
ATOM     15  C   UNL     1      96.725 106.697  93.139  1.00  0.00     0.027 A 
ATOM     16  C   UNL     1      95.648 107.445  92.645  1.00  0.00     0.003 A 
ATOM     17  H   UNL     1      98.936 105.869  94.809  1.00  0.00     0.166 HD
ENDROOT
BRANCH   7  18
ATOM     18  C   UNL     1      93.859 113.593  94.509  1.00  0.00     0.230 C 
ATOM     19  O   UNL     1      93.463 113.219  93.395  1.00  0.00    -0.274 OA
ATOM     20  N   UNL     1      93.797 114.939  94.863  1.00  0.00    -0.343 N 
BRANCH  20  21
ATOM     21  C   UNL     1      93.184 115.858  93.897  1.00  0.00     0.116 C 
ATOM     22  C   UNL     1      94.069 117.068  93.638  1.00  0.00     0.027 C 
ENDBRANCH  20  21
BRANCH  20  23
ATOM     23  C   UNL     1      94.265 115.538  96.117  1.00  0.00     0.116 C 
ATOM     24  C   UNL     1      93.119 115.878  97.058  1.00  0.00     0.027 C 
ENDBRANCH  20  23
ENDBRANCH   7  18
BRANCH   1  25
ATOM     25  C   UNL     1      95.426 111.515  98.196  1.00  0.00     0.085 C 
BRANCH  25  26
ATOM     26  C   UNL     1      95.781 112.098  99.574  1.00  0.00     0.012 C 
ATOM     27  C   UNL     1      96.869 111.315 100.296  1.00  0.00     0.005 C 
ENDBRANCH  25  26
ENDBRANCH   1  25
TORSDOF 5
ENDMDL
MODEL 14
REMARK VINA RESULT:    -7.368      2.193      5.244
REMARK INTER + INTRA:         -10.445
REMARK INTER:                  -9.534
REMARK INTRA:                  -0.910
REMARK UNBOUND:                -0.922
REMARK SMILES CCCN1C[C@H](C(=O)N(CC)CC)C=C2c3cccc4[nH]cc(c34)C[C@H]21
REMARK SMILES IDX 4 1 21 2 26 3 15 4 25 5 5 6 6 7 23 8 16 9 14 10 24 11 20 12
REMARK SMILES IDX 22 13 17 14 19 15 18 16 7 18 8 19 9 20 10 21 11 22 12 23
REMARK SMILES IDX 13 24 3 25 2 26 1 27
REMARK H PARENT 21 17
ROOT
ATOM      1  N   UNL     1      97.709 107.688  94.494  1.00  0.00    -0.295 NA
ATOM      2  N   UNL     1      95.635 112.732  97.101  1.00  0.00    -0.361 N 
ATOM      3  C   UNL     1      97.503 108.833  95.444  1.00  0.00     0.091 C 
ATOM      4  C   UNL     1      97.226 108.398  96.924  1.00  0.00    -0.026 C 
ATOM      5  C   UNL     1      96.542 109.938  94.868  1.00  0.00     0.061 C 
ATOM      6  C   UNL     1      98.648 106.722  95.107  1.00  0.00     0.102 C 
ATOM      7  C   UNL     1      98.149 106.131  96.439  1.00  0.00     0.116 C 
ATOM      8  C   UNL     1      96.249 110.974  95.894  1.00  0.00    -0.020 A 
ATOM      9  C   UNL     1      96.742 109.439  97.866  1.00  0.00    -0.011 A 
ATOM     10  C   UNL     1      97.497 107.144  97.344  1.00  0.00    -0.007 C 
ATOM     11  C   UNL     1      96.341 110.640  97.262  1.00  0.00     0.010 A 
ATOM     12  C   UNL     1      95.935 111.737  98.007  1.00  0.00     0.046 A 
ATOM     13  C   UNL     1      95.817 112.278  95.813  1.00  0.00     0.087 A 
ATOM     14  C   UNL     1      96.689 109.389  99.267  1.00  0.00     0.009 A 
ATOM     15  C   UNL     1      95.885 111.699  99.401  1.00  0.00     0.027 A 
ATOM     16  C   UNL     1      96.266 110.497 100.014  1.00  0.00     0.003 A 
ATOM     17  H   UNL     1      95.309 113.655  97.351  1.00  0.00     0.166 HD
ENDROOT
BRANCH   7  18
ATOM     18  C   UNL     1      99.259 105.296  97.106  1.00  0.00     0.230 C 
ATOM     19  O   UNL     1     100.211 105.909  97.612  1.00  0.00    -0.274 OA
ATOM     20  N   UNL     1      99.191 103.907  97.190  1.00  0.00    -0.343 N 
BRANCH  20  21
ATOM     21  C   UNL     1     100.244 103.230  97.955  1.00  0.00     0.116 C 
ATOM     22  C   UNL     1      99.665 102.392  99.085  1.00  0.00     0.027 C 
ENDBRANCH  20  21
BRANCH  20  23
ATOM     23  C   UNL     1      98.159 103.044  96.607  1.00  0.00     0.116 C 
ATOM     24  C   UNL     1      98.517 102.586  95.199  1.00  0.00     0.027 C 
ENDBRANCH  20  23
ENDBRANCH   7  18
BRANCH   1  25
ATOM     25  C   UNL     1      96.449 107.062  94.048  1.00  0.00     0.085 C 
BRANCH  25  26
ATOM     26  C   UNL     1      96.160 107.134  92.539  1.00  0.00     0.012 C 
ATOM     27  C   UNL     1      97.202 107.931  91.765  1.00  0.00     0.005 C 
ENDBRANCH  25  26
ENDBRANCH   1  25
TORSDOF 5
ENDMDL
MODEL 15
REMARK VINA RESULT:    -7.345      2.256      7.205
REMARK INTER + INTRA:         -10.415
REMARK INTER:                  -9.523
REMARK INTRA:                  -0.892
REMARK UNBOUND:                -0.922
REMARK SMILES CCCN1C[C@H](C(=O)N(CC)CC)C=C2c3cccc4[nH]cc(c34)C[C@H]21
REMARK SMILES IDX 4 1 21 2 26 3 15 4 25 5 5 6 6 7 23 8 16 9 14 10 24 11 20 12
REMARK SMILES IDX 22 13 17 14 19 15 18 16 7 18 8 19 9 20 10 21 11 22 12 23
REMARK SMILES IDX 13 24 3 25 2 26 1 27
REMARK H PARENT 21 17
ROOT
ATOM      1  N   UNL     1      96.749 107.624  95.804  1.00  0.00    -0.295 NA
ATOM      2  N   UNL     1      95.646 107.827  89.864  1.00  0.00    -0.361 N 
ATOM      3  C   UNL     1      96.449 107.233  94.385  1.00  0.00     0.091 C 
ATOM      4  C   UNL     1      97.437 106.172  93.788  1.00  0.00    -0.026 C 
ATOM      5  C   UNL     1      96.142 108.471  93.463  1.00  0.00     0.061 C 
ATOM      6  C   UNL     1      96.991 106.397  96.596  1.00  0.00     0.102 C 
ATOM      7  C   UNL     1      98.177 105.555  96.089  1.00  0.00     0.116 C 
ATOM      8  C   UNL     1      95.998 108.053  92.043  1.00  0.00    -0.020 A 
ATOM      9  C   UNL     1      97.386 105.936  92.323  1.00  0.00    -0.011 A 
ATOM     10  C   UNL     1      98.243 105.443  94.588  1.00  0.00    -0.007 C 
ATOM     11  C   UNL     1      96.637 106.875  91.599  1.00  0.00     0.010 A 
ATOM     12  C   UNL     1      96.429 106.754  90.234  1.00  0.00     0.046 A 
ATOM     13  C   UNL     1      95.382 108.626  90.954  1.00  0.00     0.087 A 
ATOM     14  C   UNL     1      97.941 104.874  91.593  1.00  0.00     0.009 A 
ATOM     15  C   UNL     1      96.972 105.699  89.499  1.00  0.00     0.027 A 
ATOM     16  C   UNL     1      97.739 104.764  90.210  1.00  0.00     0.003 A 
ATOM     17  H   UNL     1      95.329 108.008  88.921  1.00  0.00     0.166 HD
ENDROOT
BRANCH   7  18
ATOM     18  C   UNL     1      98.238 104.209  96.836  1.00  0.00     0.230 C 
ATOM     19  O   UNL     1      97.364 103.369  96.575  1.00  0.00    -0.274 OA
ATOM     20  N   UNL     1      99.256 103.908  97.738  1.00  0.00    -0.343 N 
BRANCH  20  21
ATOM     21  C   UNL     1      99.278 102.551  98.295  1.00  0.00     0.116 C 
ATOM     22  C   UNL     1      99.694 102.552  99.758  1.00  0.00     0.027 C 
ENDBRANCH  20  21
BRANCH  20  23
ATOM     23  C   UNL     1     100.328 104.806  98.181  1.00  0.00     0.116 C 
ATOM     24  C   UNL     1     101.593 104.649  97.349  1.00  0.00     0.027 C 
ENDBRANCH  20  23
ENDBRANCH   7  18
BRANCH   1  25
ATOM     25  C   UNL     1      97.841 108.610  95.921  1.00  0.00     0.085 C 
BRANCH  25  26
ATOM     26  C   UNL     1      97.643 109.708  96.980  1.00  0.00     0.012 C 
ATOM     27  C   UNL     1      96.402 110.558  96.740  1.00  0.00     0.005 C 
ENDBRANCH  25  26
ENDBRANCH   1  25
TORSDOF 5
ENDMDL
MODEL 16
REMARK VINA RESULT:    -7.291      3.664      6.847
REMARK INTER + INTRA:         -10.345
REMARK INTER:                  -9.493
REMARK INTRA:                  -0.852
REMARK UNBOUND:                -0.922
REMARK SMILES CCCN1C[C@H](C(=O)N(CC)CC)C=C2c3cccc4[nH]cc(c34)C[C@H]21
REMARK SMILES IDX 4 1 21 2 26 3 15 4 25 5 5 6 6 7 23 8 16 9 14 10 24 11 20 12
REMARK SMILES IDX 22 13 17 14 19 15 18 16 7 18 8 19 9 20 10 21 11 22 12 23
REMARK SMILES IDX 13 24 3 25 2 26 1 27
REMARK H PARENT 21 17
ROOT
ATOM      1  N   UNL     1     100.092 109.311  97.540  1.00  0.00    -0.295 NA
ATOM      2  N   UNL     1     101.143 103.385  96.986  1.00  0.00    -0.361 N 
ATOM      3  C   UNL     1     100.065 107.887  97.065  1.00  0.00     0.091 C 
ATOM      4  C   UNL     1      98.631 107.262  96.991  1.00  0.00    -0.026 C 
ATOM      5  C   UNL     1     101.162 106.993  97.755  1.00  0.00     0.061 C 
ATOM      6  C   UNL     1      99.054 110.076  96.815  1.00  0.00     0.102 C 
ATOM      7  C   UNL     1      97.625 109.544  97.034  1.00  0.00     0.116 C 
ATOM      8  C   UNL     1     101.004 105.565  97.370  1.00  0.00    -0.020 A 
ATOM      9  C   UNL     1      98.532 105.792  96.801  1.00  0.00    -0.011 A 
ATOM     10  C   UNL     1      97.529 108.041  97.015  1.00  0.00    -0.007 C 
ATOM     11  C   UNL     1      99.736 105.093  96.967  1.00  0.00     0.010 A 
ATOM     12  C   UNL     1      99.828 103.727  96.751  1.00  0.00     0.046 A 
ATOM     13  C   UNL     1     101.866 104.493  97.368  1.00  0.00     0.087 A 
ATOM     14  C   UNL     1      97.410 105.036  96.428  1.00  0.00     0.009 A 
ATOM     15  C   UNL     1      98.720 102.967  96.374  1.00  0.00     0.027 A 
ATOM     16  C   UNL     1      97.507 103.652  96.223  1.00  0.00     0.003 A 
ATOM     17  H   UNL     1     101.515 102.448  96.907  1.00  0.00     0.166 HD
ENDROOT
BRANCH   7  18
ATOM     18  C   UNL     1      96.635 110.262  96.097  1.00  0.00     0.230 C 
ATOM     19  O   UNL     1      96.927 110.324  94.894  1.00  0.00    -0.274 OA
ATOM     20  N   UNL     1      95.428 110.786  96.557  1.00  0.00    -0.343 N 
BRANCH  20  21
ATOM     21  C   UNL     1      94.512 111.337  95.552  1.00  0.00     0.116 C 
ATOM     22  C   UNL     1      94.628 112.851  95.458  1.00  0.00     0.027 C 
ENDBRANCH  20  21
BRANCH  20  23
ATOM     23  C   UNL     1      94.964 110.829  97.947  1.00  0.00     0.116 C 
ATOM     24  C   UNL     1      94.175 109.585  98.331  1.00  0.00     0.027 C 
ENDBRANCH  20  23
ENDBRANCH   7  18
BRANCH   1  25
ATOM     25  C   UNL     1      99.986 109.443  99.006  1.00  0.00     0.085 C 
BRANCH  25  26
ATOM     26  C   UNL     1     100.175 110.862  99.569  1.00  0.00     0.012 C 
ATOM     27  C   UNL     1     101.638 111.253  99.734  1.00  0.00     0.005 C 
ENDBRANCH  25  26
ENDBRANCH   1  25
TORSDOF 5
ENDMDL
MODEL 17
REMARK VINA RESULT:    -7.260      2.188      5.214
REMARK INTER + INTRA:         -10.305
REMARK INTER:                  -9.778
REMARK INTRA:                  -0.527
REMARK UNBOUND:                -0.922
REMARK SMILES CCCN1C[C@H](C(=O)N(CC)CC)C=C2c3cccc4[nH]cc(c34)C[C@H]21
REMARK SMILES IDX 4 1 21 2 26 3 15 4 25 5 5 6 6 7 23 8 16 9 14 10 24 11 20 12
REMARK SMILES IDX 22 13 17 14 19 15 18 16 7 18 8 19 9 20 10 21 11 22 12 23
REMARK SMILES IDX 13 24 3 25 2 26 1 27
REMARK H PARENT 21 17
ROOT
ATOM      1  N   UNL     1      97.184 108.910  94.996  1.00  0.00    -0.295 NA
ATOM      2  N   UNL     1      99.446 105.291  99.277  1.00  0.00    -0.361 N 
ATOM      3  C   UNL     1      97.963 107.842  95.709  1.00  0.00     0.091 C 
ATOM      4  C   UNL     1      97.768 106.403  95.118  1.00  0.00    -0.026 C 
ATOM      5  C   UNL     1      97.860 107.954  97.276  1.00  0.00     0.061 C 
ATOM      6  C   UNL     1      97.368 108.742  93.538  1.00  0.00     0.102 C 
ATOM      7  C   UNL     1      96.881 107.383  93.002  1.00  0.00     0.116 C 
ATOM      8  C   UNL     1      98.519 106.796  97.936  1.00  0.00    -0.020 A 
ATOM      9  C   UNL     1      98.274 105.259  95.919  1.00  0.00    -0.011 A 
ATOM     10  C   UNL     1      97.237 106.220  93.891  1.00  0.00    -0.007 C 
ATOM     11  C   UNL     1      98.639 105.576  97.235  1.00  0.00     0.010 A 
ATOM     12  C   UNL     1      99.199 104.637  98.088  1.00  0.00     0.046 A 
ATOM     13  C   UNL     1      99.031 106.602  99.197  1.00  0.00     0.087 A 
ATOM     14  C   UNL     1      98.479 103.933  95.509  1.00  0.00     0.009 A 
ATOM     15  C   UNL     1      99.413 103.317  97.688  1.00  0.00     0.027 A 
ATOM     16  C   UNL     1      99.034 102.985  96.380  1.00  0.00     0.003 A 
ATOM     17  H   UNL     1      99.855 104.859 100.094  1.00  0.00     0.166 HD
ENDROOT
BRANCH   7  18
ATOM     18  C   UNL     1      97.286 107.210  91.526  1.00  0.00     0.230 C 
ATOM     19  O   UNL     1      98.447 107.509  91.212  1.00  0.00    -0.274 OA
ATOM     20  N   UNL     1      96.410 106.693  90.574  1.00  0.00    -0.343 N 
BRANCH  20  21
ATOM     21  C   UNL     1      96.946 106.459  89.229  1.00  0.00     0.116 C 
ATOM     22  C   UNL     1      97.835 105.225  89.186  1.00  0.00     0.027 C 
ENDBRANCH  20  21
BRANCH  20  23
ATOM     23  C   UNL     1      95.003 106.337  90.780  1.00  0.00     0.116 C 
ATOM     24  C   UNL     1      94.311 105.944  89.482  1.00  0.00     0.027 C 
ENDBRANCH  20  23
ENDBRANCH   7  18
BRANCH   1  25
ATOM     25  C   UNL     1      95.764 108.965  95.395  1.00  0.00     0.085 C 
BRANCH  25  26
ATOM     26  C   UNL     1      94.905 110.020  94.678  1.00  0.00     0.012 C 
ATOM     27  C   UNL     1      94.111 110.900  95.634  1.00  0.00     0.005 C 
ENDBRANCH  25  26
ENDBRANCH   1  25
TORSDOF 5
ENDMDL
MODEL 18
REMARK VINA RESULT:    -7.228      2.430      6.956
REMARK INTER + INTRA:         -10.264
REMARK INTER:                  -9.687
REMARK INTRA:                  -0.576
REMARK UNBOUND:                -0.922
REMARK SMILES CCCN1C[C@H](C(=O)N(CC)CC)C=C2c3cccc4[nH]cc(c34)C[C@H]21
REMARK SMILES IDX 4 1 21 2 26 3 15 4 25 5 5 6 6 7 23 8 16 9 14 10 24 11 20 12
REMARK SMILES IDX 22 13 17 14 19 15 18 16 7 18 8 19 9 20 10 21 11 22 12 23
REMARK SMILES IDX 13 24 3 25 2 26 1 27
REMARK H PARENT 21 17
ROOT
ATOM      1  N   UNL     1      97.053 106.420  91.656  1.00  0.00    -0.295 NA
ATOM      2  N   UNL     1      98.834 101.496  94.675  1.00  0.00    -0.361 N 
ATOM      3  C   UNL     1      97.201 105.353  92.703  1.00  0.00     0.091 C 
ATOM      4  C   UNL     1      97.542 105.898  94.132  1.00  0.00    -0.026 C 
ATOM      5  C   UNL     1      98.071 104.136  92.213  1.00  0.00     0.061 C 
ATOM      6  C   UNL     1      96.197 107.501  92.194  1.00  0.00     0.102 C 
ATOM      7  C   UNL     1      96.766 108.172  93.459  1.00  0.00     0.116 C 
ATOM      8  C   UNL     1      98.315 103.177  93.324  1.00  0.00    -0.020 A 
ATOM      9  C   UNL     1      97.975 104.914  95.156  1.00  0.00    -0.011 A 
ATOM     10  C   UNL     1      97.367 107.200  94.441  1.00  0.00    -0.007 C 
ATOM     11  C   UNL     1      98.278 103.638  94.657  1.00  0.00     0.010 A 
ATOM     12  C   UNL     1      98.625 102.587  95.492  1.00  0.00     0.046 A 
ATOM     13  C   UNL     1      98.655 101.844  93.355  1.00  0.00     0.087 A 
ATOM     14  C   UNL     1      98.063 105.085  96.546  1.00  0.00     0.009 A 
ATOM     15  C   UNL     1      98.709 102.745  96.876  1.00  0.00     0.027 A 
ATOM     16  C   UNL     1      98.426 104.021  97.384  1.00  0.00     0.003 A 
ATOM     17  H   UNL     1      99.102 100.578  95.002  1.00  0.00     0.166 HD
ENDROOT
BRANCH   7  18
ATOM     18  C   UNL     1      95.732 109.139  94.065  1.00  0.00     0.230 C 
ATOM     19  O   UNL     1      94.589 109.132  93.584  1.00  0.00    -0.274 OA
ATOM     20  N   UNL     1      96.035 109.965  95.146  1.00  0.00    -0.343 N 
BRANCH  20  21
ATOM     21  C   UNL     1      94.937 110.752  95.716  1.00  0.00     0.116 C 
ATOM     22  C   UNL     1      94.395 110.119  96.988  1.00  0.00     0.027 C 
ENDBRANCH  20  21
BRANCH  20  23
ATOM     23  C   UNL     1      97.343 110.118  95.791  1.00  0.00     0.116 C 
ATOM     24  C   UNL     1      97.734 111.579  95.964  1.00  0.00     0.027 C 
ENDBRANCH  20  23
ENDBRANCH   7  18
BRANCH   1  25
ATOM     25  C   UNL     1      98.343 106.913  91.134  1.00  0.00     0.085 C 
BRANCH  25  26
ATOM     26  C   UNL     1      98.463 106.988  89.602  1.00  0.00     0.012 C 
ATOM     27  C   UNL     1      98.339 105.632  88.922  1.00  0.00     0.005 C 
ENDBRANCH  25  26
ENDBRANCH   1  25
TORSDOF 5
ENDMDL
MODEL 19
REMARK VINA RESULT:    -7.008      5.457      8.168
REMARK INTER + INTRA:          -9.979
REMARK INTER:                  -9.049
REMARK INTRA:                  -0.929
REMARK UNBOUND:                -0.922
REMARK SMILES CCCN1C[C@H](C(=O)N(CC)CC)C=C2c3cccc4[nH]cc(c34)C[C@H]21
REMARK SMILES IDX 4 1 21 2 26 3 15 4 25 5 5 6 6 7 23 8 16 9 14 10 24 11 20 12
REMARK SMILES IDX 22 13 17 14 19 15 18 16 7 18 8 19 9 20 10 21 11 22 12 23
REMARK SMILES IDX 13 24 3 25 2 26 1 27
REMARK H PARENT 21 17
ROOT
ATOM      1  N   UNL     1      97.627 111.759  97.833  1.00  0.00    -0.295 NA
ATOM      2  N   UNL     1      94.102 114.464  93.734  1.00  0.00    -0.361 N 
ATOM      3  C   UNL     1      97.147 112.521  96.630  1.00  0.00     0.091 C 
ATOM      4  C   UNL     1      97.784 113.944  96.476  1.00  0.00    -0.026 C 
ATOM      5  C   UNL     1      95.586 112.450  96.447  1.00  0.00     0.061 C 
ATOM      6  C   UNL     1      99.102 111.856  97.901  1.00  0.00     0.102 C 
ATOM      7  C   UNL     1      99.624 113.299  98.032  1.00  0.00     0.116 C 
ATOM      8  C   UNL     1      95.140 113.336  95.338  1.00  0.00    -0.020 A 
ATOM      9  C   UNL     1      97.172 114.866  95.485  1.00  0.00    -0.011 A 
ATOM     10  C   UNL     1      98.898 114.287  97.157  1.00  0.00    -0.007 C 
ATOM     11  C   UNL     1      95.930 114.451  94.982  1.00  0.00     0.010 A 
ATOM     12  C   UNL     1      95.263 115.161  93.996  1.00  0.00     0.046 A 
ATOM     13  C   UNL     1      94.014 113.356  94.548  1.00  0.00     0.087 A 
ATOM     14  C   UNL     1      97.700 116.054  94.960  1.00  0.00     0.009 A 
ATOM     15  C   UNL     1      95.783 116.341  93.462  1.00  0.00     0.027 A 
ATOM     16  C   UNL     1      97.014 116.775  93.971  1.00  0.00     0.003 A 
ATOM     17  H   UNL     1      93.407 114.742  93.055  1.00  0.00     0.166 HD
ENDROOT
BRANCH   7  18
ATOM     18  C   UNL     1     101.158 113.329  97.898  1.00  0.00     0.230 C 
ATOM     19  O   UNL     1     101.681 112.523  97.115  1.00  0.00    -0.274 OA
ATOM     20  N   UNL     1     101.944 114.252  98.585  1.00  0.00    -0.343 N 
BRANCH  20  21
ATOM     21  C   UNL     1     103.379 114.267  98.284  1.00  0.00     0.116 C 
ATOM     22  C   UNL     1     104.217 114.085  99.541  1.00  0.00     0.027 C 
ENDBRANCH  20  21
BRANCH  20  23
ATOM     23  C   UNL     1     101.481 115.233  99.573  1.00  0.00     0.116 C 
ATOM     24  C   UNL     1     101.294 116.617  98.968  1.00  0.00     0.027 C 
ENDBRANCH  20  23
ENDBRANCH   7  18
BRANCH   1  25
ATOM     25  C   UNL     1      96.964 112.165  99.087  1.00  0.00     0.085 C 
BRANCH  25  26
ATOM     26  C   UNL     1      96.480 111.019  99.992  1.00  0.00     0.012 C 
ATOM     27  C   UNL     1      95.475 110.099  99.312  1.00  0.00     0.005 C 
ENDBRANCH  25  26
ENDBRANCH   1  25
TORSDOF 5
ENDMDL
