MODEL 1
REMARK VINA RESULT:    -8.626      0.000      0.000
REMARK INTER + INTRA:         -12.004
REMARK INTER:                 -11.148
REMARK INTRA:                  -0.856
REMARK UNBOUND:                -0.856
REMARK SMILES CCCN1C[C@H](C(=O)N(CC)CC)C=C2c3cccc4[nH]cc(c34)C[C@H]21
REMARK SMILES IDX 4 1 21 2 26 3 15 4 25 5 5 6 6 7 23 8 16 9 14 10 24 11 20 12
REMARK SMILES IDX 22 13 17 14 19 15 18 16 7 18 8 19 9 20 10 21 11 22 12 23
REMARK SMILES IDX 13 24 3 25 2 26 1 27
REMARK H PARENT 21 17
ROOT
ATOM      1  N   UNL     1      21.341  18.230   7.659  1.00  0.00    -0.295 NA
ATOM      2  N   UNL     1      24.293  13.688   4.977  1.00  0.00    -0.361 N 
ATOM      3  C   UNL     1      21.885  16.871   7.324  1.00  0.00     0.091 C 
ATOM      4  C   UNL     1      22.641  16.172   8.505  1.00  0.00    -0.026 C 
ATOM      5  C   UNL     1      22.616  16.833   5.930  1.00  0.00     0.061 C 
ATOM      6  C   UNL     1      20.647  18.157   8.964  1.00  0.00     0.102 C 
ATOM      7  C   UNL     1      21.558  17.725  10.129  1.00  0.00     0.116 C 
ATOM      8  C   UNL     1      23.265  15.514   5.706  1.00  0.00    -0.020 A 
ATOM      9  C   UNL     1      23.441  14.962   8.187  1.00  0.00    -0.011 A 
ATOM     10  C   UNL     1      22.502  16.606   9.775  1.00  0.00    -0.007 C 
ATOM     11  C   UNL     1      23.639  14.728   6.818  1.00  0.00     0.010 A 
ATOM     12  C   UNL     1      24.299  13.601   6.353  1.00  0.00     0.046 A 
ATOM     13  C   UNL     1      23.673  14.849   4.573  1.00  0.00     0.087 A 
ATOM     14  C   UNL     1      23.968  14.009   9.072  1.00  0.00     0.009 A 
ATOM     15  C   UNL     1      24.822  12.645   7.225  1.00  0.00     0.027 A 
ATOM     16  C   UNL     1      24.647  12.878   8.596  1.00  0.00     0.003 A 
ATOM     17  H   UNL     1      24.706  13.004   4.358  1.00  0.00     0.166 HD
ENDROOT
BRANCH   7  18
ATOM     18  C   UNL     1      20.724  17.483  11.401  1.00  0.00     0.230 C 
ATOM     19  O   UNL     1      20.056  16.441  11.459  1.00  0.00    -0.274 OA
ATOM     20  N   UNL     1      20.744  18.366  12.478  1.00  0.00    -0.343 N 
BRANCH  20  21
ATOM     21  C   UNL     1      20.007  17.970  13.683  1.00  0.00     0.116 C 
ATOM     22  C   UNL     1      18.697  18.731  13.814  1.00  0.00     0.027 C 
ENDBRANCH  20  21
BRANCH  20  23
ATOM     23  C   UNL     1      21.445  19.653  12.543  1.00  0.00     0.116 C 
ATOM     24  C   UNL     1      22.899  19.498  12.965  1.00  0.00     0.027 C 
ENDBRANCH  20  23
ENDBRANCH   7  18
BRANCH   1  25
ATOM     25  C   UNL     1      22.359  19.298   7.607  1.00  0.00     0.085 C 
BRANCH  25  26
ATOM     26  C   UNL     1      22.118  20.404   6.566  1.00  0.00     0.012 C 
ATOM     27  C   UNL     1      21.015  20.066   5.572  1.00  0.00     0.005 C 
ENDBRANCH  25  26
ENDBRANCH   1  25
TORSDOF 5
ENDMDL
MODEL 2
REMARK VINA RESULT:    -7.948      2.559      5.185
REMARK INTER + INTRA:         -11.127
REMARK INTER:                 -10.498
REMARK INTRA:                  -0.629
REMARK UNBOUND:                -0.856
REMARK SMILES CCCN1C[C@H](C(=O)N(CC)CC)C=C2c3cccc4[nH]cc(c34)C[C@H]21
REMARK SMILES IDX 4 1 21 2 26 3 15 4 25 5 5 6 6 7 23 8 16 9 14 10 24 11 20 12
REMARK SMILES IDX 22 13 17 14 19 15 18 16 7 18 8 19 9 20 10 21 11 22 12 23
REMARK SMILES IDX 13 24 3 25 2 26 1 27
REMARK H PARENT 21 17
ROOT
ATOM      1  N   UNL     1      21.429  17.790  12.465  1.00  0.00    -0.295 NA
ATOM      2  N   UNL     1      22.546  15.678   6.912  1.00  0.00    -0.361 N 
ATOM      3  C   UNL     1      21.904  17.663  11.046  1.00  0.00     0.091 C 
ATOM      4  C   UNL     1      21.441  18.828  10.106  1.00  0.00    -0.026 C 
ATOM      5  C   UNL     1      21.722  16.209  10.469  1.00  0.00     0.061 C 
ATOM      6  C   UNL     1      21.671  19.175  12.927  1.00  0.00     0.102 C 
ATOM      7  C   UNL     1      20.936  20.244  12.097  1.00  0.00     0.116 C 
ATOM      8  C   UNL     1      22.065  16.165   9.023  1.00  0.00    -0.020 A 
ATOM      9  C   UNL     1      21.628  18.645   8.644  1.00  0.00    -0.011 A 
ATOM     10  C   UNL     1      20.967  19.985  10.613  1.00  0.00    -0.007 C 
ATOM     11  C   UNL     1      21.963  17.342   8.250  1.00  0.00     0.010 A 
ATOM     12  C   UNL     1      22.244  17.023   6.930  1.00  0.00     0.046 A 
ATOM     13  C   UNL     1      22.435  15.144   8.177  1.00  0.00     0.087 A 
ATOM     14  C   UNL     1      21.565  19.614   7.631  1.00  0.00     0.009 A 
ATOM     15  C   UNL     1      22.191  17.980   5.916  1.00  0.00     0.027 A 
ATOM     16  C   UNL     1      21.838  19.283   6.296  1.00  0.00     0.003 A 
ATOM     17  H   UNL     1      22.794  15.157   6.082  1.00  0.00     0.166 HD
ENDROOT
BRANCH   7  18
ATOM     18  C   UNL     1      21.394  21.655  12.512  1.00  0.00     0.230 C 
ATOM     19  O   UNL     1      22.610  21.843  12.657  1.00  0.00    -0.274 OA
ATOM     20  N   UNL     1      20.494  22.706  12.677  1.00  0.00    -0.343 N 
BRANCH  20  21
ATOM     21  C   UNL     1      21.057  24.032  12.953  1.00  0.00     0.116 C 
ATOM     22  C   UNL     1      20.997  24.369  14.435  1.00  0.00     0.027 C 
ENDBRANCH  20  21
BRANCH  20  23
ATOM     23  C   UNL     1      19.032  22.631  12.585  1.00  0.00     0.116 C 
ATOM     24  C   UNL     1      18.523  22.986  11.195  1.00  0.00     0.027 C 
ENDBRANCH  20  23
ENDBRANCH   7  18
BRANCH   1  25
ATOM     25  C   UNL     1      20.031  17.355  12.656  1.00  0.00     0.085 C 
BRANCH  25  26
ATOM     26  C   UNL     1      19.277  18.012  13.825  1.00  0.00     0.012 C 
ATOM     27  C   UNL     1      18.135  18.912  13.373  1.00  0.00     0.005 C 
ENDBRANCH  25  26
ENDBRANCH   1  25
TORSDOF 5
ENDMDL
MODEL 3
REMARK VINA RESULT:    -7.852      2.853      8.537
REMARK INTER + INTRA:         -11.004
REMARK INTER:                 -10.247
REMARK INTRA:                  -0.757
REMARK UNBOUND:                -0.856
REMARK SMILES CCCN1C[C@H](C(=O)N(CC)CC)C=C2c3cccc4[nH]cc(c34)C[C@H]21
REMARK SMILES IDX 4 1 21 2 26 3 15 4 25 5 5 6 6 7 23 8 16 9 14 10 24 11 20 12
REMARK SMILES IDX 22 13 17 14 19 15 18 16 7 18 8 19 9 20 10 21 11 22 12 23
REMARK SMILES IDX 13 24 3 25 2 26 1 27
REMARK H PARENT 21 17
ROOT
ATOM      1  N   UNL     1      21.158  18.443  12.298  1.00  0.00    -0.295 NA
ATOM      2  N   UNL     1      16.718  22.373  13.474  1.00  0.00    -0.361 N 
ATOM      3  C   UNL     1      19.904  19.264  12.201  1.00  0.00     0.091 C 
ATOM      4  C   UNL     1      19.776  20.086  10.873  1.00  0.00    -0.026 C 
ATOM      5  C   UNL     1      19.588  20.055  13.525  1.00  0.00     0.061 C 
ATOM      6  C   UNL     1      21.351  17.714  11.025  1.00  0.00     0.102 C 
ATOM      7  C   UNL     1      21.497  18.635   9.799  1.00  0.00     0.116 C 
ATOM      8  C   UNL     1      18.427  20.965  13.336  1.00  0.00    -0.020 A 
ATOM      9  C   UNL     1      18.718  21.127  10.810  1.00  0.00    -0.011 A 
ATOM     10  C   UNL     1      20.543  19.801   9.800  1.00  0.00    -0.007 C 
ATOM     11  C   UNL     1      18.119  21.434  12.040  1.00  0.00     0.010 A 
ATOM     12  C   UNL     1      17.064  22.329  12.140  1.00  0.00     0.046 A 
ATOM     13  C   UNL     1      17.544  21.553  14.211  1.00  0.00     0.087 A 
ATOM     14  C   UNL     1      18.216  21.790   9.681  1.00  0.00     0.009 A 
ATOM     15  C   UNL     1      16.554  22.989  11.022  1.00  0.00     0.027 A 
ATOM     16  C   UNL     1      17.158  22.704   9.790  1.00  0.00     0.003 A 
ATOM     17  H   UNL     1      15.977  22.944  13.855  1.00  0.00     0.166 HD
ENDROOT
BRANCH   7  18
ATOM     18  C   UNL     1      21.495  17.805   8.501  1.00  0.00     0.230 C 
ATOM     19  O   UNL     1      21.111  16.629   8.573  1.00  0.00    -0.274 OA
ATOM     20  N   UNL     1      21.861  18.352   7.272  1.00  0.00    -0.343 N 
BRANCH  20  21
ATOM     21  C   UNL     1      21.701  17.502   6.087  1.00  0.00     0.116 C 
ATOM     22  C   UNL     1      23.041  16.990   5.580  1.00  0.00     0.027 C 
ENDBRANCH  20  21
BRANCH  20  23
ATOM     23  C   UNL     1      22.375  19.704   7.033  1.00  0.00     0.116 C 
ATOM     24  C   UNL     1      21.533  20.473   6.026  1.00  0.00     0.027 C 
ENDBRANCH  20  23
ENDBRANCH   7  18
BRANCH   1  25
ATOM     25  C   UNL     1      22.342  19.227  12.699  1.00  0.00     0.085 C 
BRANCH  25  26
ATOM     26  C   UNL     1      23.387  18.480  13.545  1.00  0.00     0.012 C 
ATOM     27  C   UNL     1      22.786  17.751  14.738  1.00  0.00     0.005 C 
ENDBRANCH  25  26
ENDBRANCH   1  25
TORSDOF 5
ENDMDL
MODEL 4
REMARK VINA RESULT:    -7.788      3.587      8.255
REMARK INTER + INTRA:         -10.920
REMARK INTER:                 -10.374
REMARK INTRA:                  -0.546
REMARK UNBOUND:                -0.856
REMARK SMILES CCCN1C[C@H](C(=O)N(CC)CC)C=C2c3cccc4[nH]cc(c34)C[C@H]21
REMARK SMILES IDX 4 1 21 2 26 3 15 4 25 5 5 6 6 7 23 8 16 9 14 10 24 11 20 12
REMARK SMILES IDX 22 13 17 14 19 15 18 16 7 18 8 19 9 20 10 21 11 22 12 23
REMARK SMILES IDX 13 24 3 25 2 26 1 27
REMARK H PARENT 21 17
ROOT
ATOM      1  N   UNL     1      18.856  22.101  11.003  1.00  0.00    -0.295 NA
ATOM      2  N   UNL     1      22.535  23.819  15.481  1.00  0.00    -0.361 N 
ATOM      3  C   UNL     1      19.991  22.163  11.985  1.00  0.00     0.091 C 
ATOM      4  C   UNL     1      20.181  20.856  12.829  1.00  0.00    -0.026 C 
ATOM      5  C   UNL     1      20.020  23.510  12.799  1.00  0.00     0.061 C 
ATOM      6  C   UNL     1      18.931  20.819  10.267  1.00  0.00     0.102 C 
ATOM      7  C   UNL     1      18.827  19.576  11.171  1.00  0.00     0.116 C 
ATOM      8  C   UNL     1      21.063  23.468  13.858  1.00  0.00    -0.020 A 
ATOM      9  C   UNL     1      21.089  20.925  14.003  1.00  0.00    -0.011 A 
ATOM     10  C   UNL     1      19.608  19.694  12.454  1.00  0.00    -0.007 C 
ATOM     11  C   UNL     1      21.475  22.221  14.376  1.00  0.00     0.010 A 
ATOM     12  C   UNL     1      22.377  22.452  15.403  1.00  0.00     0.046 A 
ATOM     13  C   UNL     1      21.737  24.447  14.550  1.00  0.00     0.087 A 
ATOM     14  C   UNL     1      21.643  19.866  14.738  1.00  0.00     0.009 A 
ATOM     15  C   UNL     1      22.938  21.405  16.136  1.00  0.00     0.027 A 
ATOM     16  C   UNL     1      22.545  20.106  15.784  1.00  0.00     0.003 A 
ATOM     17  H   UNL     1      23.137  24.290  16.142  1.00  0.00     0.166 HD
ENDROOT
BRANCH   7  18
ATOM     18  C   UNL     1      19.112  18.297  10.361  1.00  0.00     0.230 C 
ATOM     19  O   UNL     1      18.139  17.683   9.900  1.00  0.00    -0.274 OA
ATOM     20  N   UNL     1      20.408  17.857  10.105  1.00  0.00    -0.343 N 
BRANCH  20  21
ATOM     21  C   UNL     1      20.559  16.697   9.220  1.00  0.00     0.116 C 
ATOM     22  C   UNL     1      21.667  16.911   8.200  1.00  0.00     0.027 C 
ENDBRANCH  20  21
BRANCH  20  23
ATOM     23  C   UNL     1      21.651  18.447  10.615  1.00  0.00     0.116 C 
ATOM     24  C   UNL     1      22.312  17.575  11.673  1.00  0.00     0.027 C 
ENDBRANCH  20  23
ENDBRANCH   7  18
BRANCH   1  25
ATOM     25  C   UNL     1      17.535  22.334  11.618  1.00  0.00     0.085 C 
BRANCH  25  26
ATOM     26  C   UNL     1      16.616  23.323  10.880  1.00  0.00     0.012 C 
ATOM     27  C   UNL     1      17.353  24.184   9.863  1.00  0.00     0.005 C 
ENDBRANCH  25  26
ENDBRANCH   1  25
TORSDOF 5
ENDMDL
MODEL 5
REMARK VINA RESULT:    -7.773      3.441      7.457
REMARK INTER + INTRA:         -10.901
REMARK INTER:                 -10.846
REMARK INTRA:                  -0.055
REMARK UNBOUND:                -0.856
REMARK SMILES CCCN1C[C@H](C(=O)N(CC)CC)C=C2c3cccc4[nH]cc(c34)C[C@H]21
REMARK SMILES IDX 4 1 21 2 26 3 15 4 25 5 5 6 6 7 23 8 16 9 14 10 24 11 20 12
REMARK SMILES IDX 22 13 17 14 19 15 18 16 7 18 8 19 9 20 10 21 11 22 12 23
REMARK SMILES IDX 13 24 3 25 2 26 1 27
REMARK H PARENT 21 17
ROOT
ATOM      1  N   UNL     1      20.364  17.898  10.947  1.00  0.00    -0.295 NA
ATOM      2  N   UNL     1      23.407  18.473  16.139  1.00  0.00    -0.361 N 
ATOM      3  C   UNL     1      20.806  18.348  12.311  1.00  0.00     0.091 C 
ATOM      4  C   UNL     1      21.044  19.892  12.431  1.00  0.00    -0.026 C 
ATOM      5  C   UNL     1      21.935  17.436  12.919  1.00  0.00     0.061 C 
ATOM      6  C   UNL     1      19.284  18.793  10.476  1.00  0.00     0.102 C 
ATOM      7  C   UNL     1      19.707  20.269  10.359  1.00  0.00     0.116 C 
ATOM      8  C   UNL     1      22.445  18.001  14.196  1.00  0.00    -0.020 A 
ATOM      9  C   UNL     1      21.740  20.386  13.647  1.00  0.00    -0.011 A 
ATOM     10  C   UNL     1      20.561  20.746  11.504  1.00  0.00    -0.007 C 
ATOM     11  C   UNL     1      22.335  19.388  14.432  1.00  0.00     0.010 A 
ATOM     12  C   UNL     1      22.958  19.676  15.637  1.00  0.00     0.046 A 
ATOM     13  C   UNL     1      23.105  17.448  15.269  1.00  0.00     0.087 A 
ATOM     14  C   UNL     1      21.826  21.702  14.126  1.00  0.00     0.009 A 
ATOM     15  C   UNL     1      23.044  20.980  16.126  1.00  0.00     0.027 A 
ATOM     16  C   UNL     1      22.469  21.988  15.339  1.00  0.00     0.003 A 
ATOM     17  H   UNL     1      23.904  18.366  17.012  1.00  0.00     0.166 HD
ENDROOT
BRANCH   7  18
ATOM     18  C   UNL     1      18.484  21.156  10.058  1.00  0.00     0.230 C 
ATOM     19  O   UNL     1      17.626  20.706   9.284  1.00  0.00    -0.274 OA
ATOM     20  N   UNL     1      18.306  22.400  10.659  1.00  0.00    -0.343 N 
BRANCH  20  21
ATOM     21  C   UNL     1      17.045  23.100  10.390  1.00  0.00     0.116 C 
ATOM     22  C   UNL     1      17.274  24.391   9.619  1.00  0.00     0.027 C 
ENDBRANCH  20  21
BRANCH  20  23
ATOM     23  C   UNL     1      19.245  23.083  11.555  1.00  0.00     0.116 C 
ATOM     24  C   UNL     1      18.634  23.376  12.918  1.00  0.00     0.027 C 
ENDBRANCH  20  23
ENDBRANCH   7  18
BRANCH   1  25
ATOM     25  C   UNL     1      21.474  17.777   9.982  1.00  0.00     0.085 C 
BRANCH  25  26
ATOM     26  C   UNL     1      21.530  16.463   9.185  1.00  0.00     0.012 C 
ATOM     27  C   UNL     1      22.634  15.523   9.651  1.00  0.00     0.005 C 
ENDBRANCH  25  26
ENDBRANCH   1  25
TORSDOF 5
ENDMDL
MODEL 6
REMARK VINA RESULT:    -7.635      4.256      7.883
REMARK INTER + INTRA:         -10.723
REMARK INTER:                  -9.899
REMARK INTRA:                  -0.825
REMARK UNBOUND:                -0.856
REMARK SMILES CCCN1C[C@H](C(=O)N(CC)CC)C=C2c3cccc4[nH]cc(c34)C[C@H]21
REMARK SMILES IDX 4 1 21 2 26 3 15 4 25 5 5 6 6 7 23 8 16 9 14 10 24 11 20 12
REMARK SMILES IDX 22 13 17 14 19 15 18 16 7 18 8 19 9 20 10 21 11 22 12 23
REMARK SMILES IDX 13 24 3 25 2 26 1 27
REMARK H PARENT 21 17
ROOT
ATOM      1  N   UNL     1      20.751  18.029  12.320  1.00  0.00    -0.295 NA
ATOM      2  N   UNL     1      24.533  18.169  17.032  1.00  0.00    -0.361 N 
ATOM      3  C   UNL     1      21.356  18.299  13.668  1.00  0.00     0.091 C 
ATOM      4  C   UNL     1      21.406  19.816  14.057  1.00  0.00    -0.026 C 
ATOM      5  C   UNL     1      22.682  17.488  13.915  1.00  0.00     0.061 C 
ATOM      6  C   UNL     1      19.498  18.806  12.195  1.00  0.00     0.102 C 
ATOM      7  C   UNL     1      19.697  20.329  12.313  1.00  0.00     0.116 C 
ATOM      8  C   UNL     1      23.324  17.895  15.193  1.00  0.00    -0.020 A 
ATOM      9  C   UNL     1      22.229  20.195  15.234  1.00  0.00    -0.011 A 
ATOM     10  C   UNL     1      20.664  20.730  13.396  1.00  0.00    -0.007 C 
ATOM     11  C   UNL     1      23.075  19.184  15.712  1.00  0.00     0.010 A 
ATOM     12  C   UNL     1      23.852  19.353  16.849  1.00  0.00     0.046 A 
ATOM     13  C   UNL     1      24.225  17.278  16.029  1.00  0.00     0.087 A 
ATOM     14  C   UNL     1      22.222  21.403  15.947  1.00  0.00     0.009 A 
ATOM     15  C   UNL     1      23.848  20.549  17.569  1.00  0.00     0.027 A 
ATOM     16  C   UNL     1      23.019  21.572  17.089  1.00  0.00     0.003 A 
ATOM     17  H   UNL     1      25.182  17.992  17.787  1.00  0.00     0.166 HD
ENDROOT
BRANCH   7  18
ATOM     18  C   UNL     1      18.335  21.046  12.372  1.00  0.00     0.230 C 
ATOM     19  O   UNL     1      17.399  20.453  12.927  1.00  0.00    -0.274 OA
ATOM     20  N   UNL     1      18.154  22.333  11.869  1.00  0.00    -0.343 N 
BRANCH  20  21
ATOM     21  C   UNL     1      16.847  22.961  12.092  1.00  0.00     0.116 C 
ATOM     22  C   UNL     1      16.340  23.658  10.838  1.00  0.00     0.027 C 
ENDBRANCH  20  21
BRANCH  20  23
ATOM     23  C   UNL     1      19.145  23.141  11.152  1.00  0.00     0.116 C 
ATOM     24  C   UNL     1      20.047  23.922  12.097  1.00  0.00     0.027 C 
ENDBRANCH  20  23
ENDBRANCH   7  18
BRANCH   1  25
ATOM     25  C   UNL     1      21.685  18.259  11.201  1.00  0.00     0.085 C 
BRANCH  25  26
ATOM     26  C   UNL     1      21.137  17.957   9.796  1.00  0.00     0.012 C 
ATOM     27  C   UNL     1      21.103  19.180   8.889  1.00  0.00     0.005 C 
ENDBRANCH  25  26
ENDBRANCH   1  25
TORSDOF 5
ENDMDL
MODEL 7
REMARK VINA RESULT:    -7.621      3.427      7.833
REMARK INTER + INTRA:         -10.705
REMARK INTER:                 -10.072
REMARK INTRA:                  -0.633
REMARK UNBOUND:                -0.856
REMARK SMILES CCCN1C[C@H](C(=O)N(CC)CC)C=C2c3cccc4[nH]cc(c34)C[C@H]21
REMARK SMILES IDX 4 1 21 2 26 3 15 4 25 5 5 6 6 7 23 8 16 9 14 10 24 11 20 12
REMARK SMILES IDX 22 13 17 14 19 15 18 16 7 18 8 19 9 20 10 21 11 22 12 23
REMARK SMILES IDX 13 24 3 25 2 26 1 27
REMARK H PARENT 21 17
ROOT
ATOM      1  N   UNL     1      20.904  18.959  10.636  1.00  0.00    -0.295 NA
ATOM      2  N   UNL     1      16.595  23.198  10.634  1.00  0.00    -0.361 N 
ATOM      3  C   UNL     1      20.028  20.116  11.023  1.00  0.00     0.091 C 
ATOM      4  C   UNL     1      19.375  19.980  12.441  1.00  0.00    -0.026 C 
ATOM      5  C   UNL     1      19.057  20.560   9.866  1.00  0.00     0.061 C 
ATOM      6  C   UNL     1      21.799  18.638  11.769  1.00  0.00     0.102 C 
ATOM      7  C   UNL     1      21.053  18.239  13.056  1.00  0.00     0.116 C 
ATOM      8  C   UNL     1      18.110  21.604  10.339  1.00  0.00    -0.020 A 
ATOM      9  C   UNL     1      18.288  20.931  12.789  1.00  0.00    -0.011 A 
ATOM     10  C   UNL     1      19.840  19.088  13.340  1.00  0.00    -0.007 C 
ATOM     11  C   UNL     1      17.792  21.680  11.712  1.00  0.00     0.010 A 
ATOM     12  C   UNL     1      16.829  22.663  11.883  1.00  0.00     0.046 A 
ATOM     13  C   UNL     1      17.363  22.558   9.687  1.00  0.00     0.087 A 
ATOM     14  C   UNL     1      17.745  21.206  14.053  1.00  0.00     0.009 A 
ATOM     15  C   UNL     1      16.286  22.949  13.137  1.00  0.00     0.027 A 
ATOM     16  C   UNL     1      16.762  22.193  14.218  1.00  0.00     0.003 A 
ATOM     17  H   UNL     1      15.936  23.940  10.443  1.00  0.00     0.166 HD
ENDROOT
BRANCH   7  18
ATOM     18  C   UNL     1      22.039  18.116  14.233  1.00  0.00     0.230 C 
ATOM     19  O   UNL     1      22.216  16.988  14.716  1.00  0.00    -0.274 OA
ATOM     20  N   UNL     1      22.751  19.210  14.720  1.00  0.00    -0.343 N 
BRANCH  20  21
ATOM     21  C   UNL     1      23.751  18.949  15.761  1.00  0.00     0.116 C 
ATOM     22  C   UNL     1      25.097  18.571  15.162  1.00  0.00     0.027 C 
ENDBRANCH  20  21
BRANCH  20  23
ATOM     23  C   UNL     1      22.619  20.605  14.287  1.00  0.00     0.116 C 
ATOM     24  C   UNL     1      21.896  21.464  15.315  1.00  0.00     0.027 C 
ENDBRANCH  20  23
ENDBRANCH   7  18
BRANCH   1  25
ATOM     25  C   UNL     1      20.149  17.788  10.149  1.00  0.00     0.085 C 
BRANCH  25  26
ATOM     26  C   UNL     1      20.994  16.605   9.648  1.00  0.00     0.012 C 
ATOM     27  C   UNL     1      21.757  16.911   8.366  1.00  0.00     0.005 C 
ENDBRANCH  25  26
ENDBRANCH   1  25
TORSDOF 5
ENDMDL
MODEL 8
REMARK VINA RESULT:    -7.553      2.555      8.196
REMARK INTER + INTRA:         -10.616
REMARK INTER:                 -10.053
REMARK INTRA:                  -0.563
REMARK UNBOUND:                -0.856
REMARK SMILES CCCN1C[C@H](C(=O)N(CC)CC)C=C2c3cccc4[nH]cc(c34)C[C@H]21
REMARK SMILES IDX 4 1 21 2 26 3 15 4 25 5 5 6 6 7 23 8 16 9 14 10 24 11 20 12
REMARK SMILES IDX 22 13 17 14 19 15 18 16 7 18 8 19 9 20 10 21 11 22 12 23
REMARK SMILES IDX 13 24 3 25 2 26 1 27
REMARK H PARENT 21 17
ROOT
ATOM      1  N   UNL     1      21.124  17.288  12.586  1.00  0.00    -0.295 NA
ATOM      2  N   UNL     1      17.106  21.744  13.317  1.00  0.00    -0.361 N 
ATOM      3  C   UNL     1      19.990  18.249  12.369  1.00  0.00     0.091 C 
ATOM      4  C   UNL     1      20.073  19.046  11.023  1.00  0.00    -0.026 C 
ATOM      5  C   UNL     1      19.662  19.105  13.649  1.00  0.00     0.061 C 
ATOM      6  C   UNL     1      21.335  16.510  11.345  1.00  0.00     0.102 C 
ATOM      7  C   UNL     1      21.692  17.375  10.122  1.00  0.00     0.116 C 
ATOM      8  C   UNL     1      18.639  20.141  13.347  1.00  0.00    -0.020 A 
ATOM      9  C   UNL     1      19.158  20.203  10.853  1.00  0.00    -0.011 A 
ATOM     10  C   UNL     1      20.888  18.645  10.024  1.00  0.00    -0.007 C 
ATOM     11  C   UNL     1      18.498  20.610  12.023  1.00  0.00     0.010 A 
ATOM     12  C   UNL     1      17.554  21.626  12.018  1.00  0.00     0.046 A 
ATOM     13  C   UNL     1      17.763  20.851  14.134  1.00  0.00     0.087 A 
ATOM     14  C   UNL     1      18.835  20.893   9.675  1.00  0.00     0.009 A 
ATOM     15  C   UNL     1      17.222  22.313  10.850  1.00  0.00     0.027 A 
ATOM     16  C   UNL     1      17.889  21.928   9.679  1.00  0.00     0.003 A 
ATOM     17  H   UNL     1      16.409  22.408  13.624  1.00  0.00     0.166 HD
ENDROOT
BRANCH   7  18
ATOM     18  C   UNL     1      21.699  16.519   8.842  1.00  0.00     0.230 C 
ATOM     19  O   UNL     1      20.713  16.600   8.094  1.00  0.00    -0.274 OA
ATOM     20  N   UNL     1      22.782  15.715   8.494  1.00  0.00    -0.343 N 
BRANCH  20  21
ATOM     21  C   UNL     1      22.726  15.042   7.192  1.00  0.00     0.116 C 
ATOM     22  C   UNL     1      23.449  15.841   6.117  1.00  0.00     0.027 C 
ENDBRANCH  20  21
BRANCH  20  23
ATOM     23  C   UNL     1      23.992  15.483   9.290  1.00  0.00     0.116 C 
ATOM     24  C   UNL     1      24.420  14.022   9.278  1.00  0.00     0.027 C 
ENDBRANCH  20  23
ENDBRANCH   7  18
BRANCH   1  25
ATOM     25  C   UNL     1      22.357  17.937  13.075  1.00  0.00     0.085 C 
BRANCH  25  26
ATOM     26  C   UNL     1      22.700  17.696  14.555  1.00  0.00     0.012 C 
ATOM     27  C   UNL     1      24.121  18.108  14.917  1.00  0.00     0.005 C 
ENDBRANCH  25  26
ENDBRANCH   1  25
TORSDOF 5
ENDMDL
MODEL 9
REMARK VINA RESULT:    -7.526      3.896      6.934
REMARK INTER + INTRA:         -10.581
REMARK INTER:                 -10.344
REMARK INTRA:                  -0.238
REMARK UNBOUND:                -0.856
REMARK SMILES CCCN1C[C@H](C(=O)N(CC)CC)C=C2c3cccc4[nH]cc(c34)C[C@H]21
REMARK SMILES IDX 4 1 21 2 26 3 15 4 25 5 5 6 6 7 23 8 16 9 14 10 24 11 20 12
REMARK SMILES IDX 22 13 17 14 19 15 18 16 7 18 8 19 9 20 10 21 11 22 12 23
REMARK SMILES IDX 13 24 3 25 2 26 1 27
REMARK H PARENT 21 17
ROOT
ATOM      1  N   UNL     1      21.513  21.142  14.491  1.00  0.00    -0.295 NA
ATOM      2  N   UNL     1      19.187  19.220   9.254  1.00  0.00    -0.361 N 
ATOM      3  C   UNL     1      21.022  20.268  13.373  1.00  0.00     0.091 C 
ATOM      4  C   UNL     1      22.078  19.231  12.858  1.00  0.00    -0.026 C 
ATOM      5  C   UNL     1      20.259  21.074  12.258  1.00  0.00     0.061 C 
ATOM      6  C   UNL     1      22.184  20.294  15.501  1.00  0.00     0.102 C 
ATOM      7  C   UNL     1      23.398  19.520  14.955  1.00  0.00     0.116 C 
ATOM      8  C   UNL     1      19.922  20.198  11.104  1.00  0.00    -0.020 A 
ATOM      9  C   UNL     1      21.780  18.523  11.587  1.00  0.00    -0.011 A 
ATOM     10  C   UNL     1      23.176  18.934  13.585  1.00  0.00    -0.007 C 
ATOM     11  C   UNL     1      20.705  19.049  10.856  1.00  0.00     0.010 A 
ATOM     12  C   UNL     1      20.252  18.458   9.687  1.00  0.00     0.046 A 
ATOM     13  C   UNL     1      18.982  20.283  10.105  1.00  0.00     0.087 A 
ATOM     14  C   UNL     1      22.397  17.377  11.064  1.00  0.00     0.009 A 
ATOM     15  C   UNL     1      20.855  17.314   9.161  1.00  0.00     0.027 A 
ATOM     16  C   UNL     1      21.943  16.790   9.874  1.00  0.00     0.003 A 
ATOM     17  H   UNL     1      18.650  19.032   8.418  1.00  0.00     0.166 HD
ENDROOT
BRANCH   7  18
ATOM     18  C   UNL     1      23.914  18.519  16.005  1.00  0.00     0.230 C 
ATOM     19  O   UNL     1      24.035  17.335  15.657  1.00  0.00    -0.274 OA
ATOM     20  N   UNL     1      24.283  18.916  17.289  1.00  0.00    -0.343 N 
BRANCH  20  21
ATOM     21  C   UNL     1      24.875  17.896  18.161  1.00  0.00     0.116 C 
ATOM     22  C   UNL     1      26.364  17.729  17.896  1.00  0.00     0.027 C 
ENDBRANCH  20  21
BRANCH  20  23
ATOM     23  C   UNL     1      24.158  20.261  17.859  1.00  0.00     0.116 C 
ATOM     24  C   UNL     1      23.924  20.231  19.363  1.00  0.00     0.027 C 
ENDBRANCH  20  23
ENDBRANCH   7  18
BRANCH   1  25
ATOM     25  C   UNL     1      22.354  22.265  14.031  1.00  0.00     0.085 C 
BRANCH  25  26
ATOM     26  C   UNL     1      22.294  23.543  14.885  1.00  0.00     0.012 C 
ATOM     27  C   UNL     1      21.155  24.474  14.494  1.00  0.00     0.005 C 
ENDBRANCH  25  26
ENDBRANCH   1  25
TORSDOF 5
ENDMDL
MODEL 10
REMARK VINA RESULT:    -7.512      5.054      8.469
REMARK INTER + INTRA:         -10.564
REMARK INTER:                  -9.647
REMARK INTRA:                  -0.917
REMARK UNBOUND:                -0.856
REMARK SMILES CCCN1C[C@H](C(=O)N(CC)CC)C=C2c3cccc4[nH]cc(c34)C[C@H]21
REMARK SMILES IDX 4 1 21 2 26 3 15 4 25 5 5 6 6 7 23 8 16 9 14 10 24 11 20 12
REMARK SMILES IDX 22 13 17 14 19 15 18 16 7 18 8 19 9 20 10 21 11 22 12 23
REMARK SMILES IDX 13 24 3 25 2 26 1 27
REMARK H PARENT 21 17
ROOT
ATOM      1  N   UNL     1      22.422  21.144  14.081  1.00  0.00    -0.295 NA
ATOM      2  N   UNL     1      19.725  19.558   8.910  1.00  0.00    -0.361 N 
ATOM      3  C   UNL     1      21.659  21.186  12.788  1.00  0.00     0.091 C 
ATOM      4  C   UNL     1      20.231  21.820  12.906  1.00  0.00    -0.026 C 
ATOM      5  C   UNL     1      21.739  19.833  11.988  1.00  0.00     0.061 C 
ATOM      6  C   UNL     1      22.315  22.465  14.741  1.00  0.00     0.102 C 
ATOM      7  C   UNL     1      20.869  22.878  15.073  1.00  0.00     0.116 C 
ATOM      8  C   UNL     1      20.853  19.867  10.795  1.00  0.00    -0.020 A 
ATOM      9  C   UNL     1      19.309  21.653  11.753  1.00  0.00    -0.011 A 
ATOM     10  C   UNL     1      19.883  22.560  13.980  1.00  0.00    -0.007 C 
ATOM     11  C   UNL     1      19.731  20.724  10.790  1.00  0.00     0.010 A 
ATOM     12  C   UNL     1      19.022  20.508   9.619  1.00  0.00     0.046 A 
ATOM     13  C   UNL     1      20.837  19.157   9.617  1.00  0.00     0.087 A 
ATOM     14  C   UNL     1      18.115  22.339  11.487  1.00  0.00     0.009 A 
ATOM     15  C   UNL     1      17.836  21.189   9.342  1.00  0.00     0.027 A 
ATOM     16  C   UNL     1      17.395  22.106  10.307  1.00  0.00     0.003 A 
ATOM     17  H   UNL     1      19.449  19.195   8.008  1.00  0.00     0.166 HD
ENDROOT
BRANCH   7  18
ATOM     18  C   UNL     1      20.827  24.335  15.571  1.00  0.00     0.230 C 
ATOM     19  O   UNL     1      21.119  25.226  14.761  1.00  0.00    -0.274 OA
ATOM     20  N   UNL     1      20.433  24.663  16.867  1.00  0.00    -0.343 N 
BRANCH  20  21
ATOM     21  C   UNL     1      20.314  26.089  17.189  1.00  0.00     0.116 C 
ATOM     22  C   UNL     1      21.072  26.442  18.460  1.00  0.00     0.027 C 
ENDBRANCH  20  21
BRANCH  20  23
ATOM     23  C   UNL     1      20.103  23.727  17.946  1.00  0.00     0.116 C 
ATOM     24  C   UNL     1      18.615  23.411  18.002  1.00  0.00     0.027 C 
ENDBRANCH  20  23
ENDBRANCH   7  18
BRANCH   1  25
ATOM     25  C   UNL     1      22.026  20.027  14.960  1.00  0.00     0.085 C 
BRANCH  25  26
ATOM     26  C   UNL     1      23.177  19.269  15.643  1.00  0.00     0.012 C 
ATOM     27  C   UNL     1      24.154  18.644  14.657  1.00  0.00     0.005 C 
ENDBRANCH  25  26
ENDBRANCH   1  25
TORSDOF 5
ENDMDL
MODEL 11
REMARK VINA RESULT:    -7.450      4.434      9.285
REMARK INTER + INTRA:         -10.483
REMARK INTER:                  -9.919
REMARK INTRA:                  -0.564
REMARK UNBOUND:                -0.856
REMARK SMILES CCCN1C[C@H](C(=O)N(CC)CC)C=C2c3cccc4[nH]cc(c34)C[C@H]21
REMARK SMILES IDX 4 1 21 2 26 3 15 4 25 5 5 6 6 7 23 8 16 9 14 10 24 11 20 12
REMARK SMILES IDX 22 13 17 14 19 15 18 16 7 18 8 19 9 20 10 21 11 22 12 23
REMARK SMILES IDX 13 24 3 25 2 26 1 27
REMARK H PARENT 21 17
ROOT
ATOM      1  N   UNL     1      22.782  18.096  15.011  1.00  0.00    -0.295 NA
ATOM      2  N   UNL     1      21.635  23.702  16.961  1.00  0.00    -0.361 N 
ATOM      3  C   UNL     1      22.206  19.476  15.158  1.00  0.00     0.091 C 
ATOM      4  C   UNL     1      22.273  20.342  13.854  1.00  0.00    -0.026 C 
ATOM      5  C   UNL     1      22.673  20.194  16.478  1.00  0.00     0.061 C 
ATOM      6  C   UNL     1      22.262  17.492  13.764  1.00  0.00     0.102 C 
ATOM      7  C   UNL     1      22.626  18.281  12.493  1.00  0.00     0.116 C 
ATOM      8  C   UNL     1      22.202  21.605  16.511  1.00  0.00    -0.020 A 
ATOM      9  C   UNL     1      21.984  21.793  13.980  1.00  0.00    -0.011 A 
ATOM     10  C   UNL     1      22.503  19.775  12.652  1.00  0.00    -0.007 C 
ATOM     11  C   UNL     1      21.935  22.274  15.297  1.00  0.00     0.010 A 
ATOM     12  C   UNL     1      21.603  23.588  15.587  1.00  0.00     0.046 A 
ATOM     13  C   UNL     1      22.004  22.504  17.532  1.00  0.00     0.087 A 
ATOM     14  C   UNL     1      21.705  22.717  12.961  1.00  0.00     0.009 A 
ATOM     15  C   UNL     1      21.317  24.512  14.581  1.00  0.00     0.027 A 
ATOM     16  C   UNL     1      21.382  24.048  13.260  1.00  0.00     0.003 A 
ATOM     17  H   UNL     1      21.435  24.551  17.471  1.00  0.00     0.166 HD
ENDROOT
BRANCH   7  18
ATOM     18  C   UNL     1      21.886  17.703  11.271  1.00  0.00     0.230 C 
ATOM     19  O   UNL     1      22.528  16.966  10.509  1.00  0.00    -0.274 OA
ATOM     20  N   UNL     1      20.534  17.948  11.041  1.00  0.00    -0.343 N 
BRANCH  20  21
ATOM     21  C   UNL     1      19.909  17.245   9.915  1.00  0.00     0.116 C 
ATOM     22  C   UNL     1      19.116  16.033  10.382  1.00  0.00     0.027 C 
ENDBRANCH  20  21
BRANCH  20  23
ATOM     23  C   UNL     1      19.657  18.826  11.821  1.00  0.00     0.116 C 
ATOM     24  C   UNL     1      19.178  20.027  11.018  1.00  0.00     0.027 C 
ENDBRANCH  20  23
ENDBRANCH   7  18
BRANCH   1  25
ATOM     25  C   UNL     1      24.255  18.064  15.095  1.00  0.00     0.085 C 
BRANCH  25  26
ATOM     26  C   UNL     1      24.843  17.313  16.302  1.00  0.00     0.012 C 
ATOM     27  C   UNL     1      26.302  17.654  16.570  1.00  0.00     0.005 C 
ENDBRANCH  25  26
ENDBRANCH   1  25
TORSDOF 5
ENDMDL
MODEL 12
REMARK VINA RESULT:    -7.370      2.928      8.002
REMARK INTER + INTRA:         -10.380
REMARK INTER:                  -9.606
REMARK INTRA:                  -0.774
REMARK UNBOUND:                -0.856
REMARK SMILES CCCN1C[C@H](C(=O)N(CC)CC)C=C2c3cccc4[nH]cc(c34)C[C@H]21
REMARK SMILES IDX 4 1 21 2 26 3 15 4 25 5 5 6 6 7 23 8 16 9 14 10 24 11 20 12
REMARK SMILES IDX 22 13 17 14 19 15 18 16 7 18 8 19 9 20 10 21 11 22 12 23
REMARK SMILES IDX 13 24 3 25 2 26 1 27
REMARK H PARENT 21 17
ROOT
ATOM      1  N   UNL     1      19.861  21.362  12.008  1.00  0.00    -0.295 NA
ATOM      2  N   UNL     1      23.348  21.456  16.945  1.00  0.00    -0.361 N 
ATOM      3  C   UNL     1      21.017  21.198  12.953  1.00  0.00     0.091 C 
ATOM      4  C   UNL     1      21.569  19.735  13.044  1.00  0.00    -0.026 C 
ATOM      5  C   UNL     1      20.789  21.927  14.329  1.00  0.00     0.061 C 
ATOM      6  C   UNL     1      20.181  20.675  10.738  1.00  0.00     0.102 C 
ATOM      7  C   UNL     1      20.436  19.164  10.896  1.00  0.00     0.116 C 
ATOM      8  C   UNL     1      21.886  21.616  15.284  1.00  0.00    -0.020 A 
ATOM      9  C   UNL     1      22.518  19.427  14.144  1.00  0.00    -0.011 A 
ATOM     10  C   UNL     1      21.258  18.813  12.108  1.00  0.00    -0.007 C 
ATOM     11  C   UNL     1      22.615  20.416  15.134  1.00  0.00     0.010 A 
ATOM     12  C   UNL     1      23.510  20.315  16.188  1.00  0.00     0.046 A 
ATOM     13  C   UNL     1      22.360  22.251  16.408  1.00  0.00     0.087 A 
ATOM     14  C   UNL     1      23.355  18.310  14.284  1.00  0.00     0.009 A 
ATOM     15  C   UNL     1      24.352  19.211  16.333  1.00  0.00     0.027 A 
ATOM     16  C   UNL     1      24.250  18.207  15.359  1.00  0.00     0.003 A 
ATOM     17  H   UNL     1      23.869  21.665  17.785  1.00  0.00     0.166 HD
ENDROOT
BRANCH   7  18
ATOM     18  C   UNL     1      20.953  18.566   9.574  1.00  0.00     0.230 C 
ATOM     19  O   UNL     1      21.443  19.345   8.745  1.00  0.00    -0.274 OA
ATOM     20  N   UNL     1      20.924  17.196   9.321  1.00  0.00    -0.343 N 
BRANCH  20  21
ATOM     21  C   UNL     1      21.557  16.730   8.082  1.00  0.00     0.116 C 
ATOM     22  C   UNL     1      22.758  15.842   8.365  1.00  0.00     0.027 C 
ENDBRANCH  20  21
BRANCH  20  23
ATOM     23  C   UNL     1      20.341  16.158  10.178  1.00  0.00     0.116 C 
ATOM     24  C   UNL     1      18.836  16.033   9.990  1.00  0.00     0.027 C 
ENDBRANCH  20  23
ENDBRANCH   7  18
BRANCH   1  25
ATOM     25  C   UNL     1      18.569  20.937  12.583  1.00  0.00     0.085 C 
BRANCH  25  26
ATOM     26  C   UNL     1      17.459  22.001  12.599  1.00  0.00     0.012 C 
ATOM     27  C   UNL     1      17.859  23.299  11.910  1.00  0.00     0.005 C 
ENDBRANCH  25  26
ENDBRANCH   1  25
TORSDOF 5
ENDMDL
MODEL 13
REMARK VINA RESULT:    -7.289      4.869      6.980
REMARK INTER + INTRA:         -10.276
REMARK INTER:                  -9.829
REMARK INTRA:                  -0.447
REMARK UNBOUND:                -0.856
REMARK SMILES CCCN1C[C@H](C(=O)N(CC)CC)C=C2c3cccc4[nH]cc(c34)C[C@H]21
REMARK SMILES IDX 4 1 21 2 26 3 15 4 25 5 5 6 6 7 23 8 16 9 14 10 24 11 20 12
REMARK SMILES IDX 22 13 17 14 19 15 18 16 7 18 8 19 9 20 10 21 11 22 12 23
REMARK SMILES IDX 13 24 3 25 2 26 1 27
REMARK H PARENT 21 17
ROOT
ATOM      1  N   UNL     1      18.538  22.722  12.156  1.00  0.00    -0.295 NA
ATOM      2  N   UNL     1      20.256  17.192  10.423  1.00  0.00    -0.361 N 
ATOM      3  C   UNL     1      19.155  21.353  12.129  1.00  0.00     0.091 C 
ATOM      4  C   UNL     1      20.696  21.337  12.415  1.00  0.00    -0.026 C 
ATOM      5  C   UNL     1      18.683  20.495  10.897  1.00  0.00     0.061 C 
ATOM      6  C   UNL     1      19.015  23.436  13.362  1.00  0.00     0.102 C 
ATOM      7  C   UNL     1      20.543  23.619  13.412  1.00  0.00     0.116 C 
ATOM      8  C   UNL     1      19.428  19.210  10.826  1.00  0.00    -0.020 A 
ATOM      9  C   UNL     1      21.432  20.077  12.138  1.00  0.00    -0.011 A 
ATOM     10  C   UNL     1      21.313  22.401  12.970  1.00  0.00    -0.007 C 
ATOM     11  C   UNL     1      20.711  19.121  11.408  1.00  0.00     0.010 A 
ATOM     12  C   UNL     1      21.228  17.864  11.132  1.00  0.00     0.046 A 
ATOM     13  C   UNL     1      19.159  18.002  10.227  1.00  0.00     0.087 A 
ATOM     14  C   UNL     1      22.720  19.711  12.558  1.00  0.00     0.009 A 
ATOM     15  C   UNL     1      22.505  17.488  11.550  1.00  0.00     0.027 A 
ATOM     16  C   UNL     1      23.242  18.443  12.264  1.00  0.00     0.003 A 
ATOM     17  H   UNL     1      20.347  16.245  10.081  1.00  0.00     0.166 HD
ENDROOT
BRANCH   7  18
ATOM     18  C   UNL     1      20.972  24.187  14.778  1.00  0.00     0.230 C 
ATOM     19  O   UNL     1      20.942  25.418  14.922  1.00  0.00    -0.274 OA
ATOM     20  N   UNL     1      21.336  23.363  15.842  1.00  0.00    -0.343 N 
BRANCH  20  21
ATOM     21  C   UNL     1      21.605  24.012  17.129  1.00  0.00     0.116 C 
ATOM     22  C   UNL     1      20.575  23.623  18.179  1.00  0.00     0.027 C 
ENDBRANCH  20  21
BRANCH  20  23
ATOM     23  C   UNL     1      21.461  21.902  15.815  1.00  0.00     0.116 C 
ATOM     24  C   UNL     1      22.863  21.436  16.182  1.00  0.00     0.027 C 
ENDBRANCH  20  23
ENDBRANCH   7  18
BRANCH   1  25
ATOM     25  C   UNL     1      18.752  23.487  10.912  1.00  0.00     0.085 C 
BRANCH  25  26
ATOM     26  C   UNL     1      17.480  23.943  10.178  1.00  0.00     0.012 C 
ATOM     27  C   UNL     1      16.197  23.578  10.913  1.00  0.00     0.005 C 
ENDBRANCH  25  26
ENDBRANCH   1  25
TORSDOF 5
ENDMDL
MODEL 14
REMARK VINA RESULT:    -7.228      2.345      4.361
REMARK INTER + INTRA:         -10.197
REMARK INTER:                  -9.725
REMARK INTRA:                  -0.472
REMARK UNBOUND:                -0.856
REMARK SMILES CCCN1C[C@H](C(=O)N(CC)CC)C=C2c3cccc4[nH]cc(c34)C[C@H]21
REMARK SMILES IDX 4 1 21 2 26 3 15 4 25 5 5 6 6 7 23 8 16 9 14 10 24 11 20 12
REMARK SMILES IDX 22 13 17 14 19 15 18 16 7 18 8 19 9 20 10 21 11 22 12 23
REMARK SMILES IDX 13 24 3 25 2 26 1 27
REMARK H PARENT 21 17
ROOT
ATOM      1  N   UNL     1      22.091  17.954  11.498  1.00  0.00    -0.295 NA
ATOM      2  N   UNL     1      24.948  14.206   7.713  1.00  0.00    -0.361 N 
ATOM      3  C   UNL     1      22.673  17.331  10.261  1.00  0.00     0.091 C 
ATOM      4  C   UNL     1      21.638  17.114   9.104  1.00  0.00    -0.026 C 
ATOM      5  C   UNL     1      23.607  16.104  10.578  1.00  0.00     0.061 C 
ATOM      6  C   UNL     1      21.259  19.113  11.102  1.00  0.00     0.102 C 
ATOM      7  C   UNL     1      20.085  18.746  10.175  1.00  0.00     0.116 C 
ATOM      8  C   UNL     1      24.039  15.428   9.326  1.00  0.00    -0.020 A 
ATOM      9  C   UNL     1      22.056  16.261   7.962  1.00  0.00    -0.011 A 
ATOM     10  C   UNL     1      20.446  17.746   9.108  1.00  0.00    -0.007 C 
ATOM     11  C   UNL     1      23.237  15.535   8.169  1.00  0.00     0.010 A 
ATOM     12  C   UNL     1      23.801  14.750   7.174  1.00  0.00     0.046 A 
ATOM     13  C   UNL     1      25.099  14.606   9.022  1.00  0.00     0.087 A 
ATOM     14  C   UNL     1      21.451  16.137   6.702  1.00  0.00     0.009 A 
ATOM     15  C   UNL     1      23.212  14.626   5.916  1.00  0.00     0.027 A 
ATOM     16  C   UNL     1      22.020  15.332   5.704  1.00  0.00     0.003 A 
ATOM     17  H   UNL     1      25.574  13.585   7.219  1.00  0.00     0.166 HD
ENDROOT
BRANCH   7  18
ATOM     18  C   UNL     1      19.394  20.020   9.654  1.00  0.00     0.230 C 
ATOM     19  O   UNL     1      19.429  20.231   8.433  1.00  0.00    -0.274 OA
ATOM     20  N   UNL     1      18.709  20.890  10.499  1.00  0.00    -0.343 N 
BRANCH  20  21
ATOM     21  C   UNL     1      17.987  22.003   9.873  1.00  0.00     0.116 C 
ATOM     22  C   UNL     1      18.134  23.287  10.675  1.00  0.00     0.027 C 
ENDBRANCH  20  21
BRANCH  20  23
ATOM     23  C   UNL     1      18.617  20.800  11.960  1.00  0.00     0.116 C 
ATOM     24  C   UNL     1      17.735  19.645  12.413  1.00  0.00     0.027 C 
ENDBRANCH  20  23
ENDBRANCH   7  18
BRANCH   1  25
ATOM     25  C   UNL     1      21.371  16.994  12.356  1.00  0.00     0.085 C 
BRANCH  25  26
ATOM     26  C   UNL     1      21.042  17.479  13.778  1.00  0.00     0.012 C 
ATOM     27  C   UNL     1      22.280  17.794  14.607  1.00  0.00     0.005 C 
ENDBRANCH  25  26
ENDBRANCH   1  25
TORSDOF 5
ENDMDL
MODEL 15
REMARK VINA RESULT:    -7.187      5.021      7.889
REMARK INTER + INTRA:         -10.144
REMARK INTER:                 -10.165
REMARK INTRA:                   0.021
REMARK UNBOUND:                -0.856
REMARK SMILES CCCN1C[C@H](C(=O)N(CC)CC)C=C2c3cccc4[nH]cc(c34)C[C@H]21
REMARK SMILES IDX 4 1 21 2 26 3 15 4 25 5 5 6 6 7 23 8 16 9 14 10 24 11 20 12
REMARK SMILES IDX 22 13 17 14 19 15 18 16 7 18 8 19 9 20 10 21 11 22 12 23
REMARK SMILES IDX 13 24 3 25 2 26 1 27
REMARK H PARENT 21 17
ROOT
ATOM      1  N   UNL     1      20.267  22.833  14.664  1.00  0.00    -0.295 NA
ATOM      2  N   UNL     1      17.984  20.842   9.433  1.00  0.00    -0.361 N 
ATOM      3  C   UNL     1      19.879  21.956  13.508  1.00  0.00     0.091 C 
ATOM      4  C   UNL     1      21.081  21.202  12.842  1.00  0.00    -0.026 C 
ATOM      5  C   UNL     1      18.884  22.662  12.514  1.00  0.00     0.061 C 
ATOM      6  C   UNL     1      21.173  22.074  15.555  1.00  0.00     0.102 C 
ATOM      7  C   UNL     1      22.473  21.612  14.872  1.00  0.00     0.116 C 
ATOM      8  C   UNL     1      18.645  21.819  11.312  1.00  0.00    -0.020 A 
ATOM      9  C   UNL     1      20.836  20.539  11.536  1.00  0.00    -0.011 A 
ATOM     10  C   UNL     1      22.269  21.091  13.473  1.00  0.00    -0.007 C 
ATOM     11  C   UNL     1      19.623  20.880  10.920  1.00  0.00     0.010 A 
ATOM     12  C   UNL     1      19.211  20.291   9.734  1.00  0.00     0.046 A 
ATOM     13  C   UNL     1      17.632  21.776  10.383  1.00  0.00     0.087 A 
ATOM     14  C   UNL     1      21.631  19.587  10.880  1.00  0.00     0.009 A 
ATOM     15  C   UNL     1      19.992  19.339   9.077  1.00  0.00     0.027 A 
ATOM     16  C   UNL     1      21.215  19.005   9.675  1.00  0.00     0.003 A 
ATOM     17  H   UNL     1      17.433  20.606   8.619  1.00  0.00     0.166 HD
ENDROOT
BRANCH   7  18
ATOM     18  C   UNL     1      23.262  20.668  15.799  1.00  0.00     0.230 C 
ATOM     19  O   UNL     1      23.623  21.115  16.897  1.00  0.00    -0.274 OA
ATOM     20  N   UNL     1      23.528  19.344  15.455  1.00  0.00    -0.343 N 
BRANCH  20  21
ATOM     21  C   UNL     1      24.178  18.507  16.469  1.00  0.00     0.116 C 
ATOM     22  C   UNL     1      25.614  18.178  16.087  1.00  0.00     0.027 C 
ENDBRANCH  20  21
BRANCH  20  23
ATOM     23  C   UNL     1      23.206  18.688  14.184  1.00  0.00     0.116 C 
ATOM     24  C   UNL     1      22.102  17.650  14.333  1.00  0.00     0.027 C 
ENDBRANCH  20  23
ENDBRANCH   7  18
BRANCH   1  25
ATOM     25  C   UNL     1      20.824  24.136  14.251  1.00  0.00     0.085 C 
BRANCH  25  26
ATOM     26  C   UNL     1      21.477  24.971  15.366  1.00  0.00     0.012 C 
ATOM     27  C   UNL     1      20.468  25.580  16.330  1.00  0.00     0.005 C 
ENDBRANCH  25  26
ENDBRANCH   1  25
TORSDOF 5
ENDMDL
MODEL 16
REMARK VINA RESULT:    -7.184      4.442      6.193
REMARK INTER + INTRA:         -10.140
REMARK INTER:                  -9.567
REMARK INTRA:                  -0.572
REMARK UNBOUND:                -0.856
REMARK SMILES CCCN1C[C@H](C(=O)N(CC)CC)C=C2c3cccc4[nH]cc(c34)C[C@H]21
REMARK SMILES IDX 4 1 21 2 26 3 15 4 25 5 5 6 6 7 23 8 16 9 14 10 24 11 20 12
REMARK SMILES IDX 22 13 17 14 19 15 18 16 7 18 8 19 9 20 10 21 11 22 12 23
REMARK SMILES IDX 13 24 3 25 2 26 1 27
REMARK H PARENT 21 17
ROOT
ATOM      1  N   UNL     1      18.593  21.846  11.948  1.00  0.00    -0.295 NA
ATOM      2  N   UNL     1      18.961  16.115  10.061  1.00  0.00    -0.361 N 
ATOM      3  C   UNL     1      18.964  20.396  11.825  1.00  0.00     0.091 C 
ATOM      4  C   UNL     1      20.506  20.133  11.738  1.00  0.00    -0.026 C 
ATOM      5  C   UNL     1      18.082  19.627  10.772  1.00  0.00     0.061 C 
ATOM      6  C   UNL     1      19.450  22.473  12.979  1.00  0.00     0.102 C 
ATOM      7  C   UNL     1      20.955  22.408  12.659  1.00  0.00     0.116 C 
ATOM      8  C   UNL     1      18.579  18.239  10.575  1.00  0.00    -0.020 A 
ATOM      9  C   UNL     1      20.949  18.772  11.341  1.00  0.00    -0.011 A 
ATOM     10  C   UNL     1      21.396  21.084  12.091  1.00  0.00    -0.007 C 
ATOM     11  C   UNL     1      19.934  17.945  10.838  1.00  0.00     0.010 A 
ATOM     12  C   UNL     1      20.168  16.622  10.494  1.00  0.00     0.046 A 
ATOM     13  C   UNL     1      17.989  17.091  10.101  1.00  0.00     0.087 A 
ATOM     14  C   UNL     1      22.227  18.204  11.456  1.00  0.00     0.009 A 
ATOM     15  C   UNL     1      21.434  16.046  10.611  1.00  0.00     0.027 A 
ATOM     16  C   UNL     1      22.460  16.870  11.094  1.00  0.00     0.003 A 
ATOM     17  H   UNL     1      18.819  15.167   9.742  1.00  0.00     0.166 HD
ENDROOT
BRANCH   7  18
ATOM     18  C   UNL     1      21.782  22.898  13.862  1.00  0.00     0.230 C 
ATOM     19  O   UNL     1      22.106  24.094  13.886  1.00  0.00    -0.274 OA
ATOM     20  N   UNL     1      22.121  22.056  14.919  1.00  0.00    -0.343 N 
BRANCH  20  21
ATOM     21  C   UNL     1      22.803  22.664  16.067  1.00  0.00     0.116 C 
ATOM     22  C   UNL     1      21.864  22.833  17.252  1.00  0.00     0.027 C 
ENDBRANCH  20  21
BRANCH  20  23
ATOM     23  C   UNL     1      21.849  20.618  15.016  1.00  0.00     0.116 C 
ATOM     24  C   UNL     1      23.114  19.807  15.261  1.00  0.00     0.027 C 
ENDBRANCH  20  23
ENDBRANCH   7  18
BRANCH   1  25
ATOM     25  C   UNL     1      18.618  22.569  10.661  1.00  0.00     0.085 C 
BRANCH  25  26
ATOM     26  C   UNL     1      17.524  23.632  10.467  1.00  0.00     0.012 C 
ATOM     27  C   UNL     1      16.251  23.335  11.247  1.00  0.00     0.005 C 
ENDBRANCH  25  26
ENDBRANCH   1  25
TORSDOF 5
ENDMDL
MODEL 17
REMARK VINA RESULT:    -7.081      7.457      9.809
REMARK INTER + INTRA:         -10.006
REMARK INTER:                  -9.198
REMARK INTRA:                  -0.808
REMARK UNBOUND:                -0.856
REMARK SMILES CCCN1C[C@H](C(=O)N(CC)CC)C=C2c3cccc4[nH]cc(c34)C[C@H]21
REMARK SMILES IDX 4 1 21 2 26 3 15 4 25 5 5 6 6 7 23 8 16 9 14 10 24 11 20 12
REMARK SMILES IDX 22 13 17 14 19 15 18 16 7 18 8 19 9 20 10 21 11 22 12 23
REMARK SMILES IDX 13 24 3 25 2 26 1 27
REMARK H PARENT 21 17
ROOT
ATOM      1  N   UNL     1      21.007  22.212  14.790  1.00  0.00    -0.295 NA
ATOM      2  N   UNL     1      24.782  17.622  15.894  1.00  0.00    -0.361 N 
ATOM      3  C   UNL     1      21.725  21.071  15.452  1.00  0.00     0.091 C 
ATOM      4  C   UNL     1      22.334  21.421  16.853  1.00  0.00    -0.026 C 
ATOM      5  C   UNL     1      22.680  20.298  14.468  1.00  0.00     0.061 C 
ATOM      6  C   UNL     1      20.113  22.852  15.781  1.00  0.00     0.102 C 
ATOM      7  C   UNL     1      20.851  23.422  17.007  1.00  0.00     0.116 C 
ATOM      8  C   UNL     1      23.479  19.276  15.196  1.00  0.00    -0.020 A 
ATOM      9  C   UNL     1      23.286  20.450  17.449  1.00  0.00    -0.011 A 
ATOM     10  C   UNL     1      21.943  22.523  17.527  1.00  0.00    -0.007 C 
ATOM     11  C   UNL     1      23.732  19.448  16.574  1.00  0.00     0.010 A 
ATOM     12  C   UNL     1      24.565  18.422  16.995  1.00  0.00     0.046 A 
ATOM     13  C   UNL     1      24.132  18.135  14.793  1.00  0.00     0.087 A 
ATOM     14  C   UNL     1      23.744  20.381  18.773  1.00  0.00     0.009 A 
ATOM     15  C   UNL     1      25.021  18.341  18.312  1.00  0.00     0.027 A 
ATOM     16  C   UNL     1      24.596  19.348  19.190  1.00  0.00     0.003 A 
ATOM     17  H   UNL     1      25.355  16.790  15.894  1.00  0.00     0.166 HD
ENDROOT
BRANCH   7  18
ATOM     18  C   UNL     1      19.842  23.888  18.073  1.00  0.00     0.230 C 
ATOM     19  O   UNL     1      19.358  23.025  18.820  1.00  0.00    -0.274 OA
ATOM     20  N   UNL     1      19.508  25.230  18.239  1.00  0.00    -0.343 N 
BRANCH  20  21
ATOM     21  C   UNL     1      18.631  25.568  19.365  1.00  0.00     0.116 C 
ATOM     22  C   UNL     1      17.223  25.905  18.898  1.00  0.00     0.027 C 
ENDBRANCH  20  21
BRANCH  20  23
ATOM     23  C   UNL     1      19.959  26.354  17.412  1.00  0.00     0.116 C 
ATOM     24  C   UNL     1      21.236  26.989  17.946  1.00  0.00     0.027 C 
ENDBRANCH  20  23
ENDBRANCH   7  18
BRANCH   1  25
ATOM     25  C   UNL     1      21.914  23.170  14.129  1.00  0.00     0.085 C 
BRANCH  25  26
ATOM     26  C   UNL     1      21.678  23.389  12.624  1.00  0.00     0.012 C 
ATOM     27  C   UNL     1      20.253  23.811  12.294  1.00  0.00     0.005 C 
ENDBRANCH  25  26
ENDBRANCH   1  25
TORSDOF 5
ENDMDL
MODEL 18
REMARK VINA RESULT:    -7.039      4.760      9.143
REMARK INTER + INTRA:          -9.953
REMARK INTER:                  -9.143
REMARK INTRA:                  -0.810
REMARK UNBOUND:                -0.856
REMARK SMILES CCCN1C[C@H](C(=O)N(CC)CC)C=C2c3cccc4[nH]cc(c34)C[C@H]21
REMARK SMILES IDX 4 1 21 2 26 3 15 4 25 5 5 6 6 7 23 8 16 9 14 10 24 11 20 12
REMARK SMILES IDX 22 13 17 14 19 15 18 16 7 18 8 19 9 20 10 21 11 22 12 23
REMARK SMILES IDX 13 24 3 25 2 26 1 27
REMARK H PARENT 21 17
ROOT
ATOM      1  N   UNL     1      22.529  18.927  12.830  1.00  0.00    -0.295 NA
ATOM      2  N   UNL     1      20.153  24.481  13.059  1.00  0.00    -0.361 N 
ATOM      3  C   UNL     1      22.323  20.390  13.098  1.00  0.00     0.091 C 
ATOM      4  C   UNL     1      22.470  20.794  14.605  1.00  0.00    -0.026 C 
ATOM      5  C   UNL     1      21.063  20.975  12.356  1.00  0.00     0.061 C 
ATOM      6  C   UNL     1      23.749  18.479  13.539  1.00  0.00     0.102 C 
ATOM      7  C   UNL     1      23.681  18.662  15.067  1.00  0.00     0.116 C 
ATOM      8  C   UNL     1      20.811  22.382  12.766  1.00  0.00    -0.020 A 
ATOM      9  C   UNL     1      22.015  22.152  14.999  1.00  0.00    -0.011 A 
ATOM     10  C   UNL     1      23.063  19.969  15.493  1.00  0.00    -0.007 C 
ATOM     11  C   UNL     1      21.266  22.829  14.025  1.00  0.00     0.010 A 
ATOM     12  C   UNL     1      20.832  24.133  14.207  1.00  0.00     0.046 A 
ATOM     13  C   UNL     1      20.129  23.422  12.178  1.00  0.00     0.087 A 
ATOM     14  C   UNL     1      22.285  22.850  16.185  1.00  0.00     0.009 A 
ATOM     15  C   UNL     1      21.101  24.839  15.381  1.00  0.00     0.027 A 
ATOM     16  C   UNL     1      21.832  24.164  16.369  1.00  0.00     0.003 A 
ATOM     17  H   UNL     1      19.719  25.379  12.899  1.00  0.00     0.166 HD
ENDROOT
BRANCH   7  18
ATOM     18  C   UNL     1      25.050  18.362  15.705  1.00  0.00     0.230 C 
ATOM     19  O   UNL     1      26.051  18.437  14.976  1.00  0.00    -0.274 OA
ATOM     20  N   UNL     1      25.187  18.063  17.059  1.00  0.00    -0.343 N 
BRANCH  20  21
ATOM     21  C   UNL     1      26.550  17.917  17.579  1.00  0.00     0.116 C 
ATOM     22  C   UNL     1      26.981  16.459  17.618  1.00  0.00     0.027 C 
ENDBRANCH  20  21
BRANCH  20  23
ATOM     23  C   UNL     1      24.103  17.897  18.033  1.00  0.00     0.116 C 
ATOM     24  C   UNL     1      24.200  18.890  19.182  1.00  0.00     0.027 C 
ENDBRANCH  20  23
ENDBRANCH   7  18
BRANCH   1  25
ATOM     25  C   UNL     1      21.346  18.101  13.141  1.00  0.00     0.085 C 
BRANCH  25  26
ATOM     26  C   UNL     1      20.823  17.219  11.994  1.00  0.00     0.012 C 
ATOM     27  C   UNL     1      21.365  17.622  10.630  1.00  0.00     0.005 C 
ENDBRANCH  25  26
ENDBRANCH   1  25
TORSDOF 5
ENDMDL
MODEL 19
REMARK VINA RESULT:    -7.004      4.092      8.084
REMARK INTER + INTRA:          -9.907
REMARK INTER:                  -9.349
REMARK INTRA:                  -0.557
REMARK UNBOUND:                -0.856
REMARK SMILES CCCN1C[C@H](C(=O)N(CC)CC)C=C2c3cccc4[nH]cc(c34)C[C@H]21
REMARK SMILES IDX 4 1 21 2 26 3 15 4 25 5 5 6 6 7 23 8 16 9 14 10 24 11 20 12
REMARK SMILES IDX 22 13 17 14 19 15 18 16 7 18 8 19 9 20 10 21 11 22 12 23
REMARK SMILES IDX 13 24 3 25 2 26 1 27
REMARK H PARENT 21 17
ROOT
ATOM      1  N   UNL     1      21.916  19.239  11.652  1.00  0.00    -0.295 NA
ATOM      2  N   UNL     1      17.002  22.532  10.407  1.00  0.00    -0.361 N 
ATOM      3  C   UNL     1      20.857  20.304  11.677  1.00  0.00     0.091 C 
ATOM      4  C   UNL     1      20.181  20.504  13.077  1.00  0.00    -0.026 C 
ATOM      5  C   UNL     1      19.872  20.214  10.453  1.00  0.00     0.061 C 
ATOM      6  C   UNL     1      22.808  19.426  12.818  1.00  0.00     0.102 C 
ATOM      7  C   UNL     1      22.086  19.324  14.175  1.00  0.00     0.116 C 
ATOM      8  C   UNL     1      18.757  21.187  10.595  1.00  0.00    -0.020 A 
ATOM      9  C   UNL     1      18.948  21.330  13.131  1.00  0.00    -0.011 A 
ATOM     10  C   UNL     1      20.747  20.014  14.200  1.00  0.00    -0.007 C 
ATOM     11  C   UNL     1      18.381  21.626  11.883  1.00  0.00     0.010 A 
ATOM     12  C   UNL     1      17.271  22.447  11.757  1.00  0.00     0.046 A 
ATOM     13  C   UNL     1      17.895  21.765   9.692  1.00  0.00     0.087 A 
ATOM     14  C   UNL     1      18.322  21.886  14.256  1.00  0.00     0.009 A 
ATOM     15  C   UNL     1      16.645  23.011  12.869  1.00  0.00     0.027 A 
ATOM     16  C   UNL     1      17.192  22.707  14.123  1.00  0.00     0.003 A 
ATOM     17  H   UNL     1      16.244  23.065  10.006  1.00  0.00     0.166 HD
ENDROOT
BRANCH   7  18
ATOM     18  C   UNL     1      23.035  19.724  15.320  1.00  0.00     0.230 C 
ATOM     19  O   UNL     1      23.100  20.926  15.618  1.00  0.00    -0.274 OA
ATOM     20  N   UNL     1      23.766  18.781  16.039  1.00  0.00    -0.343 N 
BRANCH  20  21
ATOM     21  C   UNL     1      24.541  19.266  17.186  1.00  0.00     0.116 C 
ATOM     22  C   UNL     1      23.651  19.535  18.390  1.00  0.00     0.027 C 
ENDBRANCH  20  21
BRANCH  20  23
ATOM     23  C   UNL     1      23.830  17.339  15.780  1.00  0.00     0.116 C 
ATOM     24  C   UNL     1      24.741  16.615  16.762  1.00  0.00     0.027 C 
ENDBRANCH  20  23
ENDBRANCH   7  18
BRANCH   1  25
ATOM     25  C   UNL     1      21.371  17.871  11.557  1.00  0.00     0.085 C 
BRANCH  25  26
ATOM     26  C   UNL     1      21.933  17.001  10.420  1.00  0.00     0.012 C 
ATOM     27  C   UNL     1      20.924  16.736   9.311  1.00  0.00     0.005 C 
ENDBRANCH  25  26
ENDBRANCH   1  25
TORSDOF 5
ENDMDL
MODEL 20
REMARK VINA RESULT:    -6.905      5.174      7.610
REMARK INTER + INTRA:          -9.779
REMARK INTER:                  -8.980
REMARK INTRA:                  -0.799
REMARK UNBOUND:                -0.856
REMARK SMILES CCCN1C[C@H](C(=O)N(CC)CC)C=C2c3cccc4[nH]cc(c34)C[C@H]21
REMARK SMILES IDX 4 1 21 2 26 3 15 4 25 5 5 6 6 7 23 8 16 9 14 10 24 11 20 12
REMARK SMILES IDX 22 13 17 14 19 15 18 16 7 18 8 19 9 20 10 21 11 22 12 23
REMARK SMILES IDX 13 24 3 25 2 26 1 27
REMARK H PARENT 21 17
ROOT
ATOM      1  N   UNL     1      17.046  22.157  12.362  1.00  0.00    -0.295 NA
ATOM      2  N   UNL     1      20.161  17.268  10.651  1.00  0.00    -0.361 N 
ATOM      3  C   UNL     1      17.789  20.852  12.373  1.00  0.00     0.091 C 
ATOM      4  C   UNL     1      18.986  20.803  13.384  1.00  0.00    -0.026 C 
ATOM      5  C   UNL     1      18.098  20.314  10.926  1.00  0.00     0.061 C 
ATOM      6  C   UNL     1      16.774  22.562  13.760  1.00  0.00     0.102 C 
ATOM      7  C   UNL     1      18.044  22.763  14.606  1.00  0.00     0.116 C 
ATOM      8  C   UNL     1      18.961  19.104  10.981  1.00  0.00    -0.020 A 
ATOM      9  C   UNL     1      19.937  19.668  13.266  1.00  0.00    -0.011 A 
ATOM     10  C   UNL     1      19.098  21.712  14.375  1.00  0.00    -0.007 C 
ATOM     11  C   UNL     1      19.803  18.905  12.097  1.00  0.00     0.010 A 
ATOM     12  C   UNL     1      20.564  17.768  11.871  1.00  0.00     0.046 A 
ATOM     13  C   UNL     1      19.191  18.075  10.098  1.00  0.00     0.087 A 
ATOM     14  C   UNL     1      20.900  19.241  14.191  1.00  0.00     0.009 A 
ATOM     15  C   UNL     1      21.521  17.331  12.788  1.00  0.00     0.027 A 
ATOM     16  C   UNL     1      21.676  18.097  13.951  1.00  0.00     0.003 A 
ATOM     17  H   UNL     1      20.541  16.438  10.217  1.00  0.00     0.166 HD
ENDROOT
BRANCH   7  18
ATOM     18  C   UNL     1      17.675  22.987  16.085  1.00  0.00     0.230 C 
ATOM     19  O   UNL     1      16.605  22.508  16.487  1.00  0.00    -0.274 OA
ATOM     20  N   UNL     1      18.521  23.658  16.966  1.00  0.00    -0.343 N 
BRANCH  20  21
ATOM     21  C   UNL     1      18.120  23.702  18.376  1.00  0.00     0.116 C 
ATOM     22  C   UNL     1      17.547  25.060  18.753  1.00  0.00     0.027 C 
ENDBRANCH  20  21
BRANCH  20  23
ATOM     23  C   UNL     1      19.790  24.314  16.634  1.00  0.00     0.116 C 
ATOM     24  C   UNL     1      20.996  23.490  17.062  1.00  0.00     0.027 C 
ENDBRANCH  20  23
ENDBRANCH   7  18
BRANCH   1  25
ATOM     25  C   UNL     1      17.720  23.210  11.578  1.00  0.00     0.085 C 
BRANCH  25  26
ATOM     26  C   UNL     1      16.823  24.010  10.618  1.00  0.00     0.012 C 
ATOM     27  C   UNL     1      17.534  24.430   9.339  1.00  0.00     0.005 C 
ENDBRANCH  25  26
ENDBRANCH   1  25
TORSDOF 5
ENDMDL
